<?xml version="1.0" encoding="UTF-8"?>

<!-- generated on 2023-05-29 14:20:04 by Eclipse SUMO netedit Version 1.14.1
<configuration xmlns:xsi="http://www.w3.org/2001/XMLSchema-instance" xsi:noNamespaceSchemaLocation="http://sumo.dlr.de/xsd/netconvertConfiguration.xsd">

    <input>
        <sumo-net-file value="C:\Users\gavin\PycharmProjects\applyingRLtoUTM\sumoDocs\ph3SUMO\ph3SUMO.net.xml"/>
    </input>

    <output>
        <output-file value="C:\Users\gavin\PycharmProjects\applyingRLtoUTM\sumoDocs\ph3SUMO\ph3SUMO.net.xml"/>
    </output>

    <processing>
        <geometry.min-radius.fix.railways value="false"/>
        <geometry.max-grade.fix value="false"/>
        <offset.disable-normalization value="true"/>
        <lefthand value="false"/>
    </processing>

    <junctions>
        <no-turnarounds value="true"/>
        <junctions.corner-detail value="5"/>
        <junctions.limit-turn-speed value="5.5"/>
        <rectangular-lane-cut value="false"/>
    </junctions>

    <pedestrian>
        <walkingareas value="false"/>
    </pedestrian>

</configuration>
-->

<net version="1.9" junctionCornerDetail="5" limitTurnSpeed="5.50" xmlns:xsi="http://www.w3.org/2001/XMLSchema-instance" xsi:noNamespaceSchemaLocation="http://sumo.dlr.de/xsd/net_file.xsd">

    <location netOffset="-1850.00,-2900.00" convBoundary="150.00,300.00,600.00,750.00" origBoundary="1850.00,2900.00,2600.00,3650.00" projParameter="!"/>

    <edge id=":1_0" function="internal">
        <lane id=":1_0_0" index="0" speed="6.51" length="9.03" shape="295.20,610.40 294.85,607.95 293.80,606.20 292.05,605.15 289.60,604.80"/>
    </edge>
    <edge id=":1_1" function="internal">
        <lane id=":1_1_0" index="0" speed="13.89" length="20.80" shape="295.20,610.40 295.20,589.60"/>
        <lane id=":1_1_1" index="1" speed="13.89" length="20.80" shape="298.40,610.40 298.40,589.60"/>
    </edge>
    <edge id=":1_3" function="internal">
        <lane id=":1_3_0" index="0" speed="6.51" length="9.03" shape="310.40,604.80 307.95,605.15 306.20,606.20 305.15,607.95 304.80,610.40"/>
    </edge>
    <edge id=":1_4" function="internal">
        <lane id=":1_4_0" index="0" speed="13.89" length="20.80" shape="310.40,604.80 289.60,604.80"/>
        <lane id=":1_4_1" index="1" speed="13.89" length="20.80" shape="310.40,601.60 289.60,601.60"/>
    </edge>
    <edge id=":1_6" function="internal">
        <lane id=":1_6_0" index="0" speed="6.51" length="9.03" shape="304.80,589.60 305.15,592.05 306.20,593.80 307.95,594.85 310.40,595.20"/>
    </edge>
    <edge id=":1_7" function="internal">
        <lane id=":1_7_0" index="0" speed="13.89" length="20.80" shape="304.80,589.60 304.80,610.40"/>
        <lane id=":1_7_1" index="1" speed="13.89" length="20.80" shape="301.60,589.60 301.60,610.40"/>
    </edge>
    <edge id=":1_9" function="internal">
        <lane id=":1_9_0" index="0" speed="6.51" length="9.03" shape="289.60,595.20 292.05,594.85 293.80,593.80 294.85,592.05 295.20,589.60"/>
    </edge>
    <edge id=":1_10" function="internal">
        <lane id=":1_10_0" index="0" speed="13.89" length="20.80" shape="289.60,595.20 310.40,595.20"/>
        <lane id=":1_10_1" index="1" speed="13.89" length="20.80" shape="289.60,598.40 310.40,598.40"/>
    </edge>
    <edge id=":2_0" function="internal">
        <lane id=":2_0_0" index="0" speed="6.51" length="9.03" shape="445.20,610.40 444.85,607.95 443.80,606.20 442.05,605.15 439.60,604.80"/>
    </edge>
    <edge id=":2_1" function="internal">
        <lane id=":2_1_0" index="0" speed="13.89" length="20.80" shape="445.20,610.40 445.20,589.60"/>
        <lane id=":2_1_1" index="1" speed="13.89" length="20.80" shape="448.40,610.40 448.40,589.60"/>
    </edge>
    <edge id=":2_3" function="internal">
        <lane id=":2_3_0" index="0" speed="6.51" length="9.03" shape="460.40,604.80 457.95,605.15 456.20,606.20 455.15,607.95 454.80,610.40"/>
    </edge>
    <edge id=":2_4" function="internal">
        <lane id=":2_4_0" index="0" speed="13.89" length="20.80" shape="460.40,604.80 439.60,604.80"/>
        <lane id=":2_4_1" index="1" speed="13.89" length="20.80" shape="460.40,601.60 439.60,601.60"/>
    </edge>
    <edge id=":2_6" function="internal">
        <lane id=":2_6_0" index="0" speed="6.51" length="9.03" shape="454.80,589.60 455.15,592.05 456.20,593.80 457.95,594.85 460.40,595.20"/>
    </edge>
    <edge id=":2_7" function="internal">
        <lane id=":2_7_0" index="0" speed="13.89" length="20.80" shape="454.80,589.60 454.80,610.40"/>
        <lane id=":2_7_1" index="1" speed="13.89" length="20.80" shape="451.60,589.60 451.60,610.40"/>
    </edge>
    <edge id=":2_9" function="internal">
        <lane id=":2_9_0" index="0" speed="6.51" length="9.03" shape="439.60,595.20 442.05,594.85 443.80,593.80 444.85,592.05 445.20,589.60"/>
    </edge>
    <edge id=":2_10" function="internal">
        <lane id=":2_10_0" index="0" speed="13.89" length="20.80" shape="439.60,595.20 460.40,595.20"/>
        <lane id=":2_10_1" index="1" speed="13.89" length="20.80" shape="439.60,598.40 460.40,598.40"/>
    </edge>
    <edge id=":5_0" function="internal">
        <lane id=":5_0_0" index="0" speed="6.51" length="9.03" shape="295.20,460.40 294.85,457.95 293.80,456.20 292.05,455.15 289.60,454.80"/>
    </edge>
    <edge id=":5_1" function="internal">
        <lane id=":5_1_0" index="0" speed="13.89" length="20.80" shape="295.20,460.40 295.20,439.60"/>
        <lane id=":5_1_1" index="1" speed="13.89" length="20.80" shape="298.40,460.40 298.40,439.60"/>
    </edge>
    <edge id=":5_3" function="internal">
        <lane id=":5_3_0" index="0" speed="6.51" length="9.03" shape="310.40,454.80 307.95,455.15 306.20,456.20 305.15,457.95 304.80,460.40"/>
    </edge>
    <edge id=":5_4" function="internal">
        <lane id=":5_4_0" index="0" speed="13.89" length="20.80" shape="310.40,454.80 289.60,454.80"/>
        <lane id=":5_4_1" index="1" speed="13.89" length="20.80" shape="310.40,451.60 289.60,451.60"/>
    </edge>
    <edge id=":5_6" function="internal">
        <lane id=":5_6_0" index="0" speed="6.51" length="9.03" shape="304.80,439.60 305.15,442.05 306.20,443.80 307.95,444.85 310.40,445.20"/>
    </edge>
    <edge id=":5_7" function="internal">
        <lane id=":5_7_0" index="0" speed="13.89" length="20.80" shape="304.80,439.60 304.80,460.40"/>
        <lane id=":5_7_1" index="1" speed="13.89" length="20.80" shape="301.60,439.60 301.60,460.40"/>
    </edge>
    <edge id=":5_9" function="internal">
        <lane id=":5_9_0" index="0" speed="6.51" length="9.03" shape="289.60,445.20 292.05,444.85 293.80,443.80 294.85,442.05 295.20,439.60"/>
    </edge>
    <edge id=":5_10" function="internal">
        <lane id=":5_10_0" index="0" speed="13.89" length="20.80" shape="289.60,445.20 310.40,445.20"/>
        <lane id=":5_10_1" index="1" speed="13.89" length="20.80" shape="289.60,448.40 310.40,448.40"/>
    </edge>
    <edge id=":6_0" function="internal">
        <lane id=":6_0_0" index="0" speed="6.51" length="9.03" shape="445.20,460.40 444.85,457.95 443.80,456.20 442.05,455.15 439.60,454.80"/>
    </edge>
    <edge id=":6_1" function="internal">
        <lane id=":6_1_0" index="0" speed="13.89" length="20.80" shape="445.20,460.40 445.20,439.60"/>
        <lane id=":6_1_1" index="1" speed="13.89" length="20.80" shape="448.40,460.40 448.40,439.60"/>
    </edge>
    <edge id=":6_3" function="internal">
        <lane id=":6_3_0" index="0" speed="6.51" length="9.03" shape="460.40,454.80 457.95,455.15 456.20,456.20 455.15,457.95 454.80,460.40"/>
    </edge>
    <edge id=":6_4" function="internal">
        <lane id=":6_4_0" index="0" speed="13.89" length="20.80" shape="460.40,454.80 439.60,454.80"/>
        <lane id=":6_4_1" index="1" speed="13.89" length="20.80" shape="460.40,451.60 439.60,451.60"/>
    </edge>
    <edge id=":6_6" function="internal">
        <lane id=":6_6_0" index="0" speed="6.51" length="9.03" shape="454.80,439.60 455.15,442.05 456.20,443.80 457.95,444.85 460.40,445.20"/>
    </edge>
    <edge id=":6_7" function="internal">
        <lane id=":6_7_0" index="0" speed="13.89" length="20.80" shape="454.80,439.60 454.80,460.40"/>
        <lane id=":6_7_1" index="1" speed="13.89" length="20.80" shape="451.60,439.60 451.60,460.40"/>
    </edge>
    <edge id=":6_9" function="internal">
        <lane id=":6_9_0" index="0" speed="6.51" length="9.03" shape="439.60,445.20 442.05,444.85 443.80,443.80 444.85,442.05 445.20,439.60"/>
    </edge>
    <edge id=":6_10" function="internal">
        <lane id=":6_10_0" index="0" speed="13.89" length="20.80" shape="439.60,445.20 460.40,445.20"/>
        <lane id=":6_10_1" index="1" speed="13.89" length="20.80" shape="439.60,448.40 460.40,448.40"/>
    </edge>

    <edge id="-h11" from="0" to="1" priority="1">
        <lane id="-h11_0" index="0" speed="13.89" length="139.60" shape="150.00,595.20 289.60,595.20"/>
        <lane id="-h11_1" index="1" speed="13.89" length="139.60" shape="150.00,598.40 289.60,598.40"/>
    </edge>
    <edge id="-h12" from="1" to="2" priority="1">
        <lane id="-h12_0" index="0" speed="13.89" length="129.20" shape="310.40,595.20 439.60,595.20"/>
        <lane id="-h12_1" index="1" speed="13.89" length="129.20" shape="310.40,598.40 439.60,598.40"/>
    </edge>
    <edge id="-h13" from="2" to="3" priority="1">
        <lane id="-h13_0" index="0" speed="13.89" length="139.60" shape="460.40,595.20 600.00,595.20"/>
        <lane id="-h13_1" index="1" speed="13.89" length="139.60" shape="460.40,598.40 600.00,598.40"/>
    </edge>
    <edge id="-h21" from="4" to="5" priority="1">
        <lane id="-h21_0" index="0" speed="13.89" length="139.60" shape="150.00,445.20 289.60,445.20"/>
        <lane id="-h21_1" index="1" speed="13.89" length="139.60" shape="150.00,448.40 289.60,448.40"/>
    </edge>
    <edge id="-h22" from="5" to="6" priority="1">
        <lane id="-h22_0" index="0" speed="13.89" length="129.20" shape="310.40,445.20 439.60,445.20"/>
        <lane id="-h22_1" index="1" speed="13.89" length="129.20" shape="310.40,448.40 439.60,448.40"/>
    </edge>
    <edge id="-h23" from="6" to="7" priority="1">
        <lane id="-h23_0" index="0" speed="13.89" length="139.60" shape="460.40,445.20 600.00,445.20"/>
        <lane id="-h23_1" index="1" speed="13.89" length="139.60" shape="460.40,448.40 600.00,448.40"/>
    </edge>
    <edge id="-v11" from="17" to="1" priority="1">
        <lane id="-v11_0" index="0" speed="13.89" length="139.60" shape="295.20,750.00 295.20,610.40"/>
        <lane id="-v11_1" index="1" speed="13.89" length="139.60" shape="298.40,750.00 298.40,610.40"/>
    </edge>
    <edge id="-v12" from="1" to="5" priority="1">
        <lane id="-v12_0" index="0" speed="13.89" length="129.20" shape="295.20,589.60 295.20,460.40"/>
        <lane id="-v12_1" index="1" speed="13.89" length="129.20" shape="298.40,589.60 298.40,460.40"/>
    </edge>
    <edge id="-v13" from="5" to="9" priority="1">
        <lane id="-v13_0" index="0" speed="13.89" length="139.60" shape="295.20,439.60 295.20,300.00"/>
        <lane id="-v13_1" index="1" speed="13.89" length="139.60" shape="298.40,439.60 298.40,300.00"/>
    </edge>
    <edge id="-v21" from="18" to="2" priority="1">
        <lane id="-v21_0" index="0" speed="13.89" length="139.60" shape="445.20,750.00 445.20,610.40"/>
        <lane id="-v21_1" index="1" speed="13.89" length="139.60" shape="448.40,750.00 448.40,610.40"/>
    </edge>
    <edge id="-v22" from="2" to="6" priority="1">
        <lane id="-v22_0" index="0" speed="13.89" length="129.20" shape="445.20,589.60 445.20,460.40"/>
        <lane id="-v22_1" index="1" speed="13.89" length="129.20" shape="448.40,589.60 448.40,460.40"/>
    </edge>
    <edge id="-v23" from="6" to="10" priority="1">
        <lane id="-v23_0" index="0" speed="13.89" length="139.60" shape="445.20,439.60 445.20,300.00"/>
        <lane id="-v23_1" index="1" speed="13.89" length="139.60" shape="448.40,439.60 448.40,300.00"/>
    </edge>
    <edge id="h11" from="1" to="0" priority="1">
        <lane id="h11_0" index="0" speed="13.89" length="139.60" shape="289.60,604.80 150.00,604.80"/>
        <lane id="h11_1" index="1" speed="13.89" length="139.60" shape="289.60,601.60 150.00,601.60"/>
    </edge>
    <edge id="h12" from="2" to="1" priority="1">
        <lane id="h12_0" index="0" speed="13.89" length="129.20" shape="439.60,604.80 310.40,604.80"/>
        <lane id="h12_1" index="1" speed="13.89" length="129.20" shape="439.60,601.60 310.40,601.60"/>
    </edge>
    <edge id="h13" from="3" to="2" priority="1">
        <lane id="h13_0" index="0" speed="13.89" length="139.60" shape="600.00,604.80 460.40,604.80"/>
        <lane id="h13_1" index="1" speed="13.89" length="139.60" shape="600.00,601.60 460.40,601.60"/>
    </edge>
    <edge id="h21" from="5" to="4" priority="1">
        <lane id="h21_0" index="0" speed="13.89" length="139.60" shape="289.60,454.80 150.00,454.80"/>
        <lane id="h21_1" index="1" speed="13.89" length="139.60" shape="289.60,451.60 150.00,451.60"/>
    </edge>
    <edge id="h22" from="6" to="5" priority="1">
        <lane id="h22_0" index="0" speed="13.89" length="129.20" shape="439.60,454.80 310.40,454.80"/>
        <lane id="h22_1" index="1" speed="13.89" length="129.20" shape="439.60,451.60 310.40,451.60"/>
    </edge>
    <edge id="h23" from="7" to="6" priority="1">
        <lane id="h23_0" index="0" speed="13.89" length="139.60" shape="600.00,454.80 460.40,454.80"/>
        <lane id="h23_1" index="1" speed="13.89" length="139.60" shape="600.00,451.60 460.40,451.60"/>
    </edge>
    <edge id="v11" from="1" to="17" priority="1">
        <lane id="v11_0" index="0" speed="13.89" length="139.60" shape="304.80,610.40 304.80,750.00"/>
        <lane id="v11_1" index="1" speed="13.89" length="139.60" shape="301.60,610.40 301.60,750.00"/>
    </edge>
    <edge id="v12" from="5" to="1" priority="1">
        <lane id="v12_0" index="0" speed="13.89" length="129.20" shape="304.80,460.40 304.80,589.60"/>
        <lane id="v12_1" index="1" speed="13.89" length="129.20" shape="301.60,460.40 301.60,589.60"/>
    </edge>
    <edge id="v13" from="9" to="5" priority="1">
        <lane id="v13_0" index="0" speed="13.89" length="139.60" shape="304.80,300.00 304.80,439.60"/>
        <lane id="v13_1" index="1" speed="13.89" length="139.60" shape="301.60,300.00 301.60,439.60"/>
    </edge>
    <edge id="v21" from="2" to="18" priority="1">
        <lane id="v21_0" index="0" speed="13.89" length="139.60" shape="454.80,610.40 454.80,750.00"/>
        <lane id="v21_1" index="1" speed="13.89" length="139.60" shape="451.60,610.40 451.60,750.00"/>
    </edge>
    <edge id="v22" from="6" to="2" priority="1">
        <lane id="v22_0" index="0" speed="13.89" length="129.20" shape="454.80,460.40 454.80,589.60"/>
        <lane id="v22_1" index="1" speed="13.89" length="129.20" shape="451.60,460.40 451.60,589.60"/>
    </edge>
    <edge id="v23" from="10" to="6" priority="1">
        <lane id="v23_0" index="0" speed="13.89" length="139.60" shape="454.80,300.00 454.80,439.60"/>
        <lane id="v23_1" index="1" speed="13.89" length="139.60" shape="451.60,300.00 451.60,439.60"/>
    </edge>

    <tlLogic id="1" type="static" programID="0" offset="0">
        <phase duration="42" state="GGGrrrGGGrrr"/>
        <phase duration="3"  state="yyyrrryyyrrr"/>
        <phase duration="42" state="rrrGGGrrrGGG"/>
        <phase duration="3"  state="rrryyyrrryyy"/>
    </tlLogic>
    <tlLogic id="2" type="static" programID="0" offset="0">
        <phase duration="42" state="GGGrrrGGGrrr"/>
        <phase duration="3"  state="yyyrrryyyrrr"/>
        <phase duration="42" state="rrrGGGrrrGGG"/>
        <phase duration="3"  state="rrryyyrrryyy"/>
    </tlLogic>
    <tlLogic id="5" type="static" programID="0" offset="0">
        <phase duration="42" state="GGGrrrGGGrrr"/>
        <phase duration="3"  state="yyyrrryyyrrr"/>
        <phase duration="42" state="rrrGGGrrrGGG"/>
        <phase duration="3"  state="rrryyyrrryyy"/>
    </tlLogic>
    <tlLogic id="6" type="static" programID="0" offset="0">
        <phase duration="42" state="GGGrrrGGGrrr"/>
        <phase duration="3"  state="yyyrrryyyrrr"/>
        <phase duration="42" state="rrrGGGrrrGGG"/>
        <phase duration="3"  state="rrryyyrrryyy"/>
    </tlLogic>

    <junction id="0" type="dead_end" x="150.00" y="600.00" incLanes="h11_0 h11_1" intLanes="" shape="150.00,600.00 150.00,606.40 150.00,600.00"/>
    <junction id="1" type="traffic_light" x="300.00" y="600.00" incLanes="-v11_0 -v11_1 h12_0 h12_1 v12_0 v12_1 -h11_0 -h11_1" intLanes=":1_0_0 :1_1_0 :1_1_1 :1_3_0 :1_4_0 :1_4_1 :1_6_0 :1_7_0 :1_7_1 :1_9_0 :1_10_0 :1_10_1" shape="293.60,610.40 306.40,610.40 306.84,608.18 307.40,607.40 308.18,606.84 309.18,606.51 310.40,606.40 310.40,593.60 308.18,593.16 307.40,592.60 306.84,591.82 306.51,590.82 306.40,589.60 293.60,589.60 293.16,591.82 292.60,592.60 291.82,593.16 290.82,593.49 289.60,593.60 289.60,606.40 291.82,606.84 292.60,607.40 293.16,608.18 293.49,609.18">
        <request index="0"  response="000000000000" foes="000000110000" cont="0"/>
        <request index="1"  response="000000000000" foes="111000110000" cont="0"/>
        <request index="2"  response="000000000000" foes="111000110000" cont="0"/>
        <request index="3"  response="000110000000" foes="000110000000" cont="0"/>
        <request index="4"  response="000110000111" foes="000110000111" cont="0"/>
        <request index="5"  response="000110000111" foes="000110000111" cont="0"/>
        <request index="6"  response="000000000000" foes="110000000000" cont="0"/>
        <request index="7"  response="000000000000" foes="110000111000" cont="0"/>
        <request index="8"  response="000000000000" foes="110000111000" cont="0"/>
        <request index="9"  response="000000000110" foes="000000000110" cont="0"/>
        <request index="10" response="000111000110" foes="000111000110" cont="0"/>
        <request index="11" response="000111000110" foes="000111000110" cont="0"/>
    </junction>
    <junction id="10" type="dead_end" x="450.00" y="300.00" incLanes="-v23_0 -v23_1" intLanes="" shape="450.00,300.00 443.60,300.00 450.00,300.00"/>
    <junction id="17" type="dead_end" x="300.00" y="750.00" incLanes="v11_0 v11_1" intLanes="" shape="300.00,750.00 306.40,750.00 300.00,750.00"/>
    <junction id="18" type="dead_end" x="450.00" y="750.00" incLanes="v21_0 v21_1" intLanes="" shape="450.00,750.00 456.40,750.00 450.00,750.00"/>
    <junction id="2" type="traffic_light" x="450.00" y="600.00" incLanes="-v21_0 -v21_1 h13_0 h13_1 v22_0 v22_1 -h12_0 -h12_1" intLanes=":2_0_0 :2_1_0 :2_1_1 :2_3_0 :2_4_0 :2_4_1 :2_6_0 :2_7_0 :2_7_1 :2_9_0 :2_10_0 :2_10_1" shape="443.60,610.40 456.40,610.40 456.84,608.18 457.40,607.40 458.18,606.84 459.18,606.51 460.40,606.40 460.40,593.60 458.18,593.16 457.40,592.60 456.84,591.82 456.51,590.82 456.40,589.60 443.60,589.60 443.16,591.82 442.60,592.60 441.82,593.16 440.82,593.49 439.60,593.60 439.60,606.40 441.82,606.84 442.60,607.40 443.16,608.18 443.49,609.18">
        <request index="0"  response="000000000000" foes="000000110000" cont="0"/>
        <request index="1"  response="000000000000" foes="111000110000" cont="0"/>
        <request index="2"  response="000000000000" foes="111000110000" cont="0"/>
        <request index="3"  response="000110000000" foes="000110000000" cont="0"/>
        <request index="4"  response="000110000111" foes="000110000111" cont="0"/>
        <request index="5"  response="000110000111" foes="000110000111" cont="0"/>
        <request index="6"  response="000000000000" foes="110000000000" cont="0"/>
        <request index="7"  response="000000000000" foes="110000111000" cont="0"/>
        <request index="8"  response="000000000000" foes="110000111000" cont="0"/>
        <request index="9"  response="000000000110" foes="000000000110" cont="0"/>
        <request index="10" response="000111000110" foes="000111000110" cont="0"/>
        <request index="11" response="000111000110" foes="000111000110" cont="0"/>
    </junction>
    <junction id="3" type="dead_end" x="600.00" y="600.00" incLanes="-h13_0 -h13_1" intLanes="" shape="600.00,600.00 600.00,593.60 600.00,600.00"/>
    <junction id="4" type="dead_end" x="150.00" y="450.00" incLanes="h21_0 h21_1" intLanes="" shape="150.00,450.00 150.00,456.40 150.00,450.00"/>
    <junction id="5" type="traffic_light" x="300.00" y="450.00" incLanes="-v12_0 -v12_1 h22_0 h22_1 v13_0 v13_1 -h21_0 -h21_1" intLanes=":5_0_0 :5_1_0 :5_1_1 :5_3_0 :5_4_0 :5_4_1 :5_6_0 :5_7_0 :5_7_1 :5_9_0 :5_10_0 :5_10_1" shape="293.60,460.40 306.40,460.40 306.84,458.18 307.40,457.40 308.18,456.84 309.18,456.51 310.40,456.40 310.40,443.60 308.18,443.16 307.40,442.60 306.84,441.82 306.51,440.82 306.40,439.60 293.60,439.60 293.16,441.82 292.60,442.60 291.82,443.16 290.82,443.49 289.60,443.60 289.60,456.40 291.82,456.84 292.60,457.40 293.16,458.18 293.49,459.18">
        <request index="0"  response="000000000000" foes="000000110000" cont="0"/>
        <request index="1"  response="000000000000" foes="111000110000" cont="0"/>
        <request index="2"  response="000000000000" foes="111000110000" cont="0"/>
        <request index="3"  response="000110000000" foes="000110000000" cont="0"/>
        <request index="4"  response="000110000111" foes="000110000111" cont="0"/>
        <request index="5"  response="000110000111" foes="000110000111" cont="0"/>
        <request index="6"  response="000000000000" foes="110000000000" cont="0"/>
        <request index="7"  response="000000000000" foes="110000111000" cont="0"/>
        <request index="8"  response="000000000000" foes="110000111000" cont="0"/>
        <request index="9"  response="000000000110" foes="000000000110" cont="0"/>
        <request index="10" response="000111000110" foes="000111000110" cont="0"/>
        <request index="11" response="000111000110" foes="000111000110" cont="0"/>
    </junction>
    <junction id="6" type="traffic_light" x="450.00" y="450.00" incLanes="-v22_0 -v22_1 h23_0 h23_1 v23_0 v23_1 -h22_0 -h22_1" intLanes=":6_0_0 :6_1_0 :6_1_1 :6_3_0 :6_4_0 :6_4_1 :6_6_0 :6_7_0 :6_7_1 :6_9_0 :6_10_0 :6_10_1" shape="443.60,460.40 456.40,460.40 456.84,458.18 457.40,457.40 458.18,456.84 459.18,456.51 460.40,456.40 460.40,443.60 458.18,443.16 457.40,442.60 456.84,441.82 456.51,440.82 456.40,439.60 443.60,439.60 443.16,441.82 442.60,442.60 441.82,443.16 440.82,443.49 439.60,443.60 439.60,456.40 441.82,456.84 442.60,457.40 443.16,458.18 443.49,459.18">
        <request index="0"  response="000000000000" foes="000000110000" cont="0"/>
        <request index="1"  response="000000000000" foes="111000110000" cont="0"/>
        <request index="2"  response="000000000000" foes="111000110000" cont="0"/>
        <request index="3"  response="000110000000" foes="000110000000" cont="0"/>
        <request index="4"  response="000110000111" foes="000110000111" cont="0"/>
        <request index="5"  response="000110000111" foes="000110000111" cont="0"/>
        <request index="6"  response="000000000000" foes="110000000000" cont="0"/>
        <request index="7"  response="000000000000" foes="110000111000" cont="0"/>
        <request index="8"  response="000000000000" foes="110000111000" cont="0"/>
        <request index="9"  response="000000000110" foes="000000000110" cont="0"/>
        <request index="10" response="000111000110" foes="000111000110" cont="0"/>
        <request index="11" response="000111000110" foes="000111000110" cont="0"/>
    </junction>
    <junction id="7" type="dead_end" x="600.00" y="450.00" incLanes="-h23_0 -h23_1" intLanes="" shape="600.00,450.00 600.00,443.60 600.00,450.00"/>
    <junction id="9" type="dead_end" x="300.00" y="300.00" incLanes="-v13_0 -v13_1" intLanes="" shape="300.00,300.00 293.60,300.00 300.00,300.00"/>

    <connection from="-h11" to="-v12" fromLane="0" toLane="0" via=":1_9_0" tl="1" linkIndex="9" dir="r" state="o"/>
    <connection from="-h11" to="-h12" fromLane="0" toLane="0" via=":1_10_0" tl="1" linkIndex="10" dir="s" state="o"/>
    <connection from="-h11" to="-h12" fromLane="1" toLane="1" via=":1_10_1" tl="1" linkIndex="11" dir="s" state="o"/>
    <connection from="-h12" to="-v22" fromLane="0" toLane="0" via=":2_9_0" tl="2" linkIndex="9" dir="r" state="o"/>
    <connection from="-h12" to="-h13" fromLane="0" toLane="0" via=":2_10_0" tl="2" linkIndex="10" dir="s" state="o"/>
    <connection from="-h12" to="-h13" fromLane="1" toLane="1" via=":2_10_1" tl="2" linkIndex="11" dir="s" state="o"/>
    <connection from="-h21" to="-v13" fromLane="0" toLane="0" via=":5_9_0" tl="5" linkIndex="9" dir="r" state="o"/>
    <connection from="-h21" to="-h22" fromLane="0" toLane="0" via=":5_10_0" tl="5" linkIndex="10" dir="s" state="o"/>
    <connection from="-h21" to="-h22" fromLane="1" toLane="1" via=":5_10_1" tl="5" linkIndex="11" dir="s" state="o"/>
    <connection from="-h22" to="-v23" fromLane="0" toLane="0" via=":6_9_0" tl="6" linkIndex="9" dir="r" state="o"/>
    <connection from="-h22" to="-h23" fromLane="0" toLane="0" via=":6_10_0" tl="6" linkIndex="10" dir="s" state="o"/>
    <connection from="-h22" to="-h23" fromLane="1" toLane="1" via=":6_10_1" tl="6" linkIndex="11" dir="s" state="o"/>
    <connection from="-v11" to="h11" fromLane="0" toLane="0" via=":1_0_0" tl="1" linkIndex="0" dir="r" state="O"/>
    <connection from="-v11" to="-v12" fromLane="0" toLane="0" via=":1_1_0" tl="1" linkIndex="1" dir="s" state="O"/>
    <connection from="-v11" to="-v12" fromLane="1" toLane="1" via=":1_1_1" tl="1" linkIndex="2" dir="s" state="O"/>
    <connection from="-v12" to="h21" fromLane="0" toLane="0" via=":5_0_0" tl="5" linkIndex="0" dir="r" state="O"/>
    <connection from="-v12" to="-v13" fromLane="0" toLane="0" via=":5_1_0" tl="5" linkIndex="1" dir="s" state="O"/>
    <connection from="-v12" to="-v13" fromLane="1" toLane="1" via=":5_1_1" tl="5" linkIndex="2" dir="s" state="O"/>
    <connection from="-v21" to="h12" fromLane="0" toLane="0" via=":2_0_0" tl="2" linkIndex="0" dir="r" state="O"/>
    <connection from="-v21" to="-v22" fromLane="0" toLane="0" via=":2_1_0" tl="2" linkIndex="1" dir="s" state="O"/>
    <connection from="-v21" to="-v22" fromLane="1" toLane="1" via=":2_1_1" tl="2" linkIndex="2" dir="s" state="O"/>
    <connection from="-v22" to="h22" fromLane="0" toLane="0" via=":6_0_0" tl="6" linkIndex="0" dir="r" state="O"/>
    <connection from="-v22" to="-v23" fromLane="0" toLane="0" via=":6_1_0" tl="6" linkIndex="1" dir="s" state="O"/>
    <connection from="-v22" to="-v23" fromLane="1" toLane="1" via=":6_1_1" tl="6" linkIndex="2" dir="s" state="O"/>
    <connection from="h12" to="v11" fromLane="0" toLane="0" via=":1_3_0" tl="1" linkIndex="3" dir="r" state="o"/>
    <connection from="h12" to="h11" fromLane="0" toLane="0" via=":1_4_0" tl="1" linkIndex="4" dir="s" state="o"/>
    <connection from="h12" to="h11" fromLane="1" toLane="1" via=":1_4_1" tl="1" linkIndex="5" dir="s" state="o"/>
    <connection from="h13" to="v21" fromLane="0" toLane="0" via=":2_3_0" tl="2" linkIndex="3" dir="r" state="o"/>
    <connection from="h13" to="h12" fromLane="0" toLane="0" via=":2_4_0" tl="2" linkIndex="4" dir="s" state="o"/>
    <connection from="h13" to="h12" fromLane="1" toLane="1" via=":2_4_1" tl="2" linkIndex="5" dir="s" state="o"/>
    <connection from="h22" to="v12" fromLane="0" toLane="0" via=":5_3_0" tl="5" linkIndex="3" dir="r" state="o"/>
    <connection from="h22" to="h21" fromLane="0" toLane="0" via=":5_4_0" tl="5" linkIndex="4" dir="s" state="o"/>
    <connection from="h22" to="h21" fromLane="1" toLane="1" via=":5_4_1" tl="5" linkIndex="5" dir="s" state="o"/>
    <connection from="h23" to="v22" fromLane="0" toLane="0" via=":6_3_0" tl="6" linkIndex="3" dir="r" state="o"/>
    <connection from="h23" to="h22" fromLane="0" toLane="0" via=":6_4_0" tl="6" linkIndex="4" dir="s" state="o"/>
    <connection from="h23" to="h22" fromLane="1" toLane="1" via=":6_4_1" tl="6" linkIndex="5" dir="s" state="o"/>
    <connection from="v12" to="-h12" fromLane="0" toLane="0" via=":1_6_0" tl="1" linkIndex="6" dir="r" state="O"/>
    <connection from="v12" to="v11" fromLane="0" toLane="0" via=":1_7_0" tl="1" linkIndex="7" dir="s" state="O"/>
    <connection from="v12" to="v11" fromLane="1" toLane="1" via=":1_7_1" tl="1" linkIndex="8" dir="s" state="O"/>
    <connection from="v13" to="-h22" fromLane="0" toLane="0" via=":5_6_0" tl="5" linkIndex="6" dir="r" state="O"/>
    <connection from="v13" to="v12" fromLane="0" toLane="0" via=":5_7_0" tl="5" linkIndex="7" dir="s" state="O"/>
    <connection from="v13" to="v12" fromLane="1" toLane="1" via=":5_7_1" tl="5" linkIndex="8" dir="s" state="O"/>
    <connection from="v22" to="-h13" fromLane="0" toLane="0" via=":2_6_0" tl="2" linkIndex="6" dir="r" state="O"/>
    <connection from="v22" to="v21" fromLane="0" toLane="0" via=":2_7_0" tl="2" linkIndex="7" dir="s" state="O"/>
    <connection from="v22" to="v21" fromLane="1" toLane="1" via=":2_7_1" tl="2" linkIndex="8" dir="s" state="O"/>
    <connection from="v23" to="-h23" fromLane="0" toLane="0" via=":6_6_0" tl="6" linkIndex="6" dir="r" state="O"/>
    <connection from="v23" to="v22" fromLane="0" toLane="0" via=":6_7_0" tl="6" linkIndex="7" dir="s" state="O"/>
    <connection from="v23" to="v22" fromLane="1" toLane="1" via=":6_7_1" tl="6" linkIndex="8" dir="s" state="O"/>

    <connection from=":1_0" to="h11" fromLane="0" toLane="0" dir="r" state="M"/>
    <connection from=":1_1" to="-v12" fromLane="0" toLane="0" dir="s" state="M"/>
    <connection from=":1_1" to="-v12" fromLane="1" toLane="1" dir="s" state="M"/>
    <connection from=":1_3" to="v11" fromLane="0" toLane="0" dir="r" state="M"/>
    <connection from=":1_4" to="h11" fromLane="0" toLane="0" dir="s" state="M"/>
    <connection from=":1_4" to="h11" fromLane="1" toLane="1" dir="s" state="M"/>
    <connection from=":1_6" to="-h12" fromLane="0" toLane="0" dir="r" state="M"/>