<configuration>
	<input>
		<net-file value="2x2Grid.net.xml"/>
		<route-files value="gridRand5000.rou.xml"/>
	</input>
	
	<time>
		<begin value="0"/>
		<end value="18000"/>
	</time>

</configuration>