<?xml version="1.0" encoding="UTF-8"?>

<!-- generated on 2023-06-02 13:48:57.666828 by randomTrips.py v1_14_1+0000-f654d7b963e
<configuration>
    <end value="5000"/>
    <length value="True"/>
    <net-file value="2x2Grid.net.xml"/>
    <route-file value="gridRand5000.rou.xml"/>
</configuration>
-->

<!-- generated on 2023-06-02 13:48:57 by Eclipse SUMO duarouter Version 1.14.1
<configuration xmlns:xsi="http://www.w3.org/2001/XMLSchema-instance" xsi:noNamespaceSchemaLocation="http://sumo.dlr.de/xsd/duarouterConfiguration.xsd">

    <input>
        <net-file value="2x2Grid.net.xml"/>
        <route-files value="trips.trips.xml"/>
    </input>

    <output>
        <output-file value="gridRand5000.rou.xml"/>
        <alternatives-output value="NUL"/>
    </output>

    <time>
        <begin value="0"/>
        <end value="5000"/>
    </time>

    <report>
        <no-warnings value="true"/>
        <ignore-errors value="true"/>
        <no-step-log value="true"/>
    </report>

</configuration>
-->

<routes xmlns:xsi="http://www.w3.org/2001/XMLSchema-instance" xsi:noNamespaceSchemaLocation="http://sumo.dlr.de/xsd/routes_file.xsd">
    <vehicle id="0" depart="0.00">
        <route edges="h22 v12 -h12"/>
    </vehicle>
    <vehicle id="2" depart="2.00">
        <route edges="h23 h22 h21"/>
    </vehicle>
    <vehicle id="3" depart="3.00">
        <route edges="v22 -h13"/>
    </vehicle>
    <vehicle id="4" depart="4.00">
        <route edges="-v21 -v22 h22 v12 -h12"/>
    </vehicle>
    <vehicle id="9" depart="9.00">
        <route edges="v12 -h12"/>
    </vehicle>
    <vehicle id="10" depart="10.00">
        <route edges="v12 -h12 -v22 h22"/>
    </vehicle>
    <vehicle id="13" depart="13.00">
        <route edges="-h12 -h13"/>
    </vehicle>
    <vehicle id="15" depart="15.00">
        <route edges="v12 -h12 -v22 h22"/>
    </vehicle>
    <vehicle id="17" depart="17.00">
        <route edges="-v21 h12 h11"/>
    </vehicle>
    <vehicle id="20" depart="20.00">
        <route edges="h23 h22 v12 -h12"/>
    </vehicle>
    <vehicle id="32" depart="32.00">
        <route edges="v13 v12 v11"/>
    </vehicle>
    <vehicle id="34" depart="34.00">
        <route edges="-v12"/>
    </vehicle>
    <vehicle id="37" depart="37.00">
        <route edges="h22 v12 -h12 -v22"/>
    </vehicle>
    <vehicle id="41" depart="41.00">
        <route edges="h13 v21"/>
    </vehicle>
    <vehicle id="44" depart="44.00">
        <route edges="-h12"/>
    </vehicle>
    <vehicle id="45" depart="45.00">
        <route edges="-h12 -v22 h22 h21"/>
    </vehicle>
    <vehicle id="46" depart="46.00">
        <route edges="v12 -h12 -v22"/>
    </vehicle>
    <vehicle id="47" depart="47.00">
        <route edges="-h11 -h12 -v22"/>
    </vehicle>
    <vehicle id="50" depart="50.00">
        <route edges="-h11 -h12 -v22 h22"/>
    </vehicle>
    <vehicle id="52" depart="52.00">
        <route edges="-v11 -v12 h21"/>
    </vehicle>
    <vehicle id="53" depart="53.00">
        <route edges="-h12 -v22"/>
    </vehicle>
    <vehicle id="58" depart="58.00">
        <route edges="-v11 -v12 h21"/>
    </vehicle>
    <vehicle id="62" depart="62.00">
        <route edges="-h11 -v12 -v13"/>
    </vehicle>
    <vehicle id="66" depart="66.00">
        <route edges="v22"/>
    </vehicle>
    <vehicle id="67" depart="67.00">
        <route edges="-h12 -v22 -v23"/>
    </vehicle>
    <vehicle id="68" depart="68.00">
        <route edges="-h12 -v22 h22 v12 v11"/>
    </vehicle>
    <vehicle id="76" depart="76.00">
        <route edges="-v21 h12 h11"/>
    </vehicle>
    <vehicle id="79" depart="79.00">
        <route edges="-h22 -h23"/>
    </vehicle>
    <vehicle id="80" depart="80.00">
        <route edges="-h12 -v22 h22 h21"/>
    </vehicle>
    <vehicle id="82" depart="82.00">
        <route edges="v13 v12 -h12 -h13"/>
    </vehicle>
    <vehicle id="84" depart="84.00">
        <route edges="-h22"/>
    </vehicle>
    <vehicle id="86" depart="86.00">
        <route edges="-v22 h22 v12 v11"/>
    </vehicle>
    <vehicle id="88" depart="88.00">
        <route edges="-h12 -v22"/>
    </vehicle>
    <vehicle id="89" depart="89.00">
        <route edges="-v21 -v22 -v23"/>
    </vehicle>
    <vehicle id="90" depart="90.00">
        <route edges="h23 h22 h21"/>
    </vehicle>
    <vehicle id="91" depart="91.00">
        <route edges="v23 v22 -h13"/>
    </vehicle>
    <vehicle id="93" depart="93.00">
        <route edges="v13 -h22 -h23"/>
    </vehicle>
    <vehicle id="94" depart="94.00">
        <route edges="-h22 -v23"/>
    </vehicle>
    <vehicle id="97" depart="97.00">
        <route edges="-v22 h22 v12"/>
    </vehicle>
    <vehicle id="100" depart="100.00">
        <route edges="v23 v22 v21"/>
    </vehicle>
    <vehicle id="101" depart="101.00">
        <route edges="v13 -h22"/>
    </vehicle>
    <vehicle id="103" depart="103.00">
        <route edges="-v21 -v22 h22 v12 -h12"/>
    </vehicle>
    <vehicle id="106" depart="106.00">
        <route edges="-v22"/>
    </vehicle>
    <vehicle id="107" depart="107.00">
        <route edges="v23 v22"/>
    </vehicle>
    <vehicle id="119" depart="119.00">
        <route edges="h13 h12"/>
    </vehicle>
    <vehicle id="120" depart="120.00">
        <route edges="-v21 h12"/>
    </vehicle>
    <vehicle id="126" depart="126.00">
        <route edges="-h12 -v22 -v23"/>
    </vehicle>
    <vehicle id="127" depart="127.00">
        <route edges="v23 v22"/>
    </vehicle>
    <vehicle id="130" depart="130.00">
        <route edges="v22 v21"/>
    </vehicle>
    <vehicle id="132" depart="132.00">
        <route edges="v13 v12 -h12 -v22 h22"/>
    </vehicle>
    <vehicle id="134" depart="134.00">
        <route edges="h22 v12 -h12"/>
    </vehicle>
    <vehicle id="143" depart="143.00">
        <route edges="v13 v12 -h12 -h13"/>
    </vehicle>
    <vehicle id="145" depart="145.00">
        <route edges="-h11 -h12 -v22 h22 v12 v11"/>
    </vehicle>
    <vehicle id="148" depart="148.00">
        <route edges="-v21 -v22 h22 v12 -h12"/>
    </vehicle>
    <vehicle id="152" depart="152.00">
        <route edges="-h21 -h22"/>
    </vehicle>
    <vehicle id="154" depart="154.00">
        <route edges="v12"/>
    </vehicle>
    <vehicle id="158" depart="158.00">
        <route edges="-v21 h12"/>
    </vehicle>
    <vehicle id="162" depart="162.00">
        <route edges="-h11 -h12 -v22 h22"/>
    </vehicle>
    <vehicle id="164" depart="164.00">
        <route edges="v12"/>
    </vehicle>
    <vehicle id="166" depart="166.00">
        <route edges="v12 -h12 -h13"/>
    </vehicle>
    <vehicle id="167" depart="167.00">
        <route edges="v13 v12"/>
    </vehicle>
    <vehicle id="174" depart="174.00">
        <route edges="h22 v12 -h12 -v22"/>
    </vehicle>
    <vehicle id="176" depart="176.00">
        <route edges="v23 v22 -h13"/>
    </vehicle>
    <vehicle id="179" depart="179.00">
        <route edges="-h12 -v22"/>
    </vehicle>
    <vehicle id="181" depart="181.00">
        <route edges="h13 h12 h11"/>
    </vehicle>
    <vehicle id="182" depart="182.00">
        <route edges="-v21 h12"/>
    </vehicle>
    <vehicle id="186" depart="186.00">
        <route edges="h23 h22 h21"/>
    </vehicle>
    <vehicle id="196" depart="196.00">
        <route edges="-v11 h11"/>
    </vehicle>
    <vehicle id="197" depart="197.00">
        <route edges="-h11 -v12"/>
    </vehicle>
    <vehicle id="198" depart="198.00">
        <route edges="-v21 h12"/>
    </vehicle>
    <vehicle id="199" depart="199.00">
        <route edges="h22 v12 -h12 -v22 -v23"/>
    </vehicle>
    <vehicle id="205" depart="205.00">
        <route edges="v13 v12 v11"/>
    </vehicle>
    <vehicle id="208" depart="208.00">
        <route edges="-h22 -v23"/>
    </vehicle>
    <vehicle id="209" depart="209.00">
        <route edges="v13 v12 -h12 -h13"/>
    </vehicle>
    <vehicle id="210" depart="210.00">
        <route edges="-v21 -v22 h22 h21"/>
    </vehicle>
    <vehicle id="213" depart="213.00">
        <route edges="h22 v12 -h12"/>
    </vehicle>
    <vehicle id="214" depart="214.00">
        <route edges="v12 v11"/>
    </vehicle>
    <vehicle id="215" depart="215.00">
        <route edges="-h12 -v22"/>
    </vehicle>
    <vehicle id="219" depart="219.00">
        <route edges="-v22 h22 v12 v11"/>
    </vehicle>
    <vehicle id="231" depart="231.00">
        <route edges="-v11 -v12 -v13"/>
    </vehicle>
    <vehicle id="234" depart="234.00">
        <route edges="h23 v22 -h13"/>
    </vehicle>
    <vehicle id="235" depart="235.00">
        <route edges="-v21 h12 h11"/>
    </vehicle>
    <vehicle id="239" depart="239.00">
        <route edges="v13 v12 v11"/>
    </vehicle>
    <vehicle id="240" depart="240.00">
        <route edges="-v21 -v22 h22 v12 -h12"/>
    </vehicle>
    <vehicle id="243" depart="243.00">
        <route edges="-v21 -v22 h22"/>
    </vehicle>
    <vehicle id="244" depart="244.00">
        <route edges="h12"/>
    </vehicle>
    <vehicle id="245" depart="245.00">
        <route edges="-h22 -h23"/>
    </vehicle>
    <vehicle id="246" depart="246.00">
        <route edges="-v21 -v22 h22 v12 -h12"/>
    </vehicle>
    <vehicle id="247" depart="247.00">
        <route edges="-v12 h21"/>
    </vehicle>
    <vehicle id="251" depart="251.00">
        <route edges="-v21 h12 h11"/>
    </vehicle>
    <vehicle id="252" depart="252.00">
        <route edges="-h11 -v12 h21"/>
    </vehicle>
    <vehicle id="253" depart="253.00">
        <route edges="-h21 -h22 -v23"/>
    </vehicle>
    <vehicle id="254" depart="254.00">
        <route edges="-h11 -h12 -v22"/>
    </vehicle>
    <vehicle id="256" depart="256.00">
        <route edges="v12 -h12 -v22"/>
    </vehicle>
    <vehicle id="257" depart="257.00">
        <route edges="v12"/>
    </vehicle>
    <vehicle id="261" depart="261.00">
        <route edges="h22 v12 v11"/>
    </vehicle>
    <vehicle id="262" depart="262.00">
        <route edges="h22 v12 v11"/>
    </vehicle>
    <vehicle id="263" depart="263.00">
        <route edges="v23 -h23"/>
    </vehicle>
    <vehicle id="267" depart="267.00">
        <route edges="h23 h22 v12 v11"/>
    </vehicle>
    <vehicle id="269" depart="269.00">
        <route edges="h23 v22 -h13"/>
    </vehicle>
    <vehicle id="271" depart="271.00">
        <route edges="-h12"/>
    </vehicle>
    <vehicle id="272" depart="272.00">
        <route edges="-v11 -v12 h21"/>
    </vehicle>
    <vehicle id="274" depart="274.00">
        <route edges="h23 v22 -h13"/>
    </vehicle>
    <vehicle id="275" depart="275.00">
        <route edges="h23 h22 h21"/>
    </vehicle>
    <vehicle id="276" depart="276.00">
        <route edges="-h12 -v22 h22 v12 v11"/>
    </vehicle>
    <vehicle id="282" depart="282.00">
        <route edges="v13 v12"/>
    </vehicle>
    <vehicle id="284" depart="284.00">
        <route edges="h22 v12"/>
    </vehicle>
    <vehicle id="285" depart="285.00">
        <route edges="h23 h22 v12 -h12 -v22 -v23"/>
    </vehicle>
    <vehicle id="286" depart="286.00">
        <route edges="h23 v22"/>
    </vehicle>
    <vehicle id="289" depart="289.00">
        <route edges="-v21 -v22 h22"/>
    </vehicle>
    <vehicle id="291" depart="291.00">
        <route edges="v13 v12 -h12 -h13"/>
    </vehicle>
    <vehicle id="294" depart="294.00">
        <route edges="-v21 -v22 h22 v12 -h12"/>
    </vehicle>
    <vehicle id="295" depart="295.00">
        <route edges="v13 -h22"/>
    </vehicle>
    <vehicle id="300" depart="300.00">
        <route edges="-h12 -v22 h22"/>
    </vehicle>
    <vehicle id="301" depart="301.00">
        <route edges="-v22 h22 v12 v11"/>
    </vehicle>
    <vehicle id="302" depart="302.00">
        <route edges="h23 h22 h21"/>
    </vehicle>
    <vehicle id="303" depart="303.00">
        <route edges="-v22 h22 v12 v11"/>
    </vehicle>
    <vehicle id="312" depart="312.00">
        <route edges="h12 v11"/>
    </vehicle>
    <vehicle id="313" depart="313.00">
        <route edges="-h21 -h22 -h23"/>
    </vehicle>
    <vehicle id="314" depart="314.00">
        <route edges="-v22 h22"/>
    </vehicle>
    <vehicle id="317" depart="317.00">
        <route edges="-h22 -h23"/>
    </vehicle>
    <vehicle id="322" depart="322.00">
        <route edges="v13 -h22 -v23"/>
    </vehicle>
    <vehicle id="324" depart="324.00">
        <route edges="-v22 -v23"/>
    </vehicle>
    <vehicle id="327" depart="327.00">
        <route edges="v13 v12 -h12 -v22"/>
    </vehicle>
    <vehicle id="328" depart="328.00">
        <route edges="-h12 -v22 h22 h21"/>
    </vehicle>
    <vehicle id="331" depart="331.00">
        <route edges="v23 v22 -h13"/>
    </vehicle>
    <vehicle id="335" depart="335.00">
        <route edges="-v22 h22 v12"/>
    </vehicle>
    <vehicle id="337" depart="337.00">
        <route edges="h13 h12"/>
    </vehicle>
    <vehicle id="338" depart="338.00">
        <route edges="h23 v22"/>
    </vehicle>
    <vehicle id="339" depart="339.00">
        <route edges="-h22 -h23"/>
    </vehicle>
    <vehicle id="342" depart="342.00">
        <route edges="-h11 -h12 -v22 -v23"/>
    </vehicle>
    <vehicle id="345" depart="345.00">
        <route edges="h23 h22 v12 -h12 -v22 -v23"/>
    </vehicle>
    <vehicle id="346" depart="346.00">
        <route edges="h23 v22 v21"/>
    </vehicle>
    <vehicle id="347" depart="347.00">
        <route edges="v12 -h12 -v22 h22 h21"/>
    </vehicle>
    <vehicle id="349" depart="349.00">
        <route edges="-v21 h12 h11"/>
    </vehicle>
    <vehicle id="351" depart="351.00">
        <route edges="v13 v12 -h12 -h13"/>
    </vehicle>
    <vehicle id="355" depart="355.00">
        <route edges="h23 h22"/>
    </vehicle>
    <vehicle id="357" depart="357.00">
        <route edges="-v22 h22 v12 -h12 -h13"/>
    </vehicle>
    <vehicle id="358" depart="358.00">
        <route edges="-h11 -h12 -v22"/>
    </vehicle>
    <vehicle id="359" depart="359.00">
        <route edges="-v12"/>
    </vehicle>
    <vehicle id="362" depart="362.00">
        <route edges="v23 v22"/>
    </vehicle>
    <vehicle id="364" depart="364.00">
        <route edges="-h11 -h12 -v22 h22 v12 v11"/>
    </vehicle>
    <vehicle id="365" depart="365.00">
        <route edges="-v22 h22 h21"/>
    </vehicle>
    <vehicle id="368" depart="368.00">
        <route edges="-v22 h22 v12 -h12 -h13"/>
    </vehicle>
    <vehicle id="369" depart="369.00">
        <route edges="-v12 -v13"/>
    </vehicle>
    <vehicle id="370" depart="370.00">
        <route edges="h22 v12"/>
    </vehicle>
    <vehicle id="376" depart="376.00">
        <route edges="-v21 h12 h11"/>
    </vehicle>
    <vehicle id="379" depart="379.00">
        <route edges="-h21 -v13"/>
    </vehicle>
    <vehicle id="380" depart="380.00">
        <route edges="v12 -h12 -v22 h22 h21"/>
    </vehicle>
    <vehicle id="383" depart="383.00">
        <route edges="-v21 -v22 h22"/>
    </vehicle>
    <vehicle id="388" depart="388.00">
        <route edges="v23 v22 v21"/>
    </vehicle>
    <vehicle id="389" depart="389.00">
        <route edges="-v22 h22 v12 -h12 -h13"/>
    </vehicle>
    <vehicle id="390" depart="390.00">
        <route edges="v13 -h22 -v23"/>
    </vehicle>
    <vehicle id="393" depart="393.00">
        <route edges="v23 -h23"/>
    </vehicle>
    <vehicle id="400" depart="400.00">
        <route edges="-v11 -v12"/>
    </vehicle>
    <vehicle id="404" depart="404.00">
        <route edges="h12 h11"/>
    </vehicle>
    <vehicle id="408" depart="408.00">
        <route edges="v12 -h12"/>
    </vehicle>
    <vehicle id="409" depart="409.00">
        <route edges="h23 h22"/>
    </vehicle>
    <vehicle id="410" depart="410.00">
        <route edges="v13 v12 -h12 -v22"/>
    </vehicle>
    <vehicle id="411" depart="411.00">
        <route edges="h22 v12"/>
    </vehicle>
    <vehicle id="415" depart="415.00">
        <route edges="v13 -h22 -v23"/>
    </vehicle>
    <vehicle id="417" depart="417.00">
        <route edges="h23 h22 v12 -h12 -v22"/>
    </vehicle>
    <vehicle id="421" depart="421.00">
        <route edges="h22 v12"/>
    </vehicle>
    <vehicle id="422" depart="422.00">
        <route edges="v13 v12"/>
    </vehicle>
    <vehicle id="424" depart="424.00">
        <route edges="h23 h22 v12 v11"/>
    </vehicle>
    <vehicle id="425" depart="425.00">
        <route edges="v13 v12 -h12"/>
    </vehicle>
    <vehicle id="426" depart="426.00">
        <route edges="-h12 -v22 h22 h21"/>
    </vehicle>
    <vehicle id="427" depart="427.00">
        <route edges="v22"/>
    </vehicle>
    <vehicle id="428" depart="428.00">
        <route edges="h23 h22 v12 -h12 -v22"/>
    </vehicle>
    <vehicle id="429" depart="429.00">
        <route edges="-h12 -v22 h22 h21"/>
    </vehicle>
    <vehicle id="430" depart="430.00">
        <route edges="v13 -h22 -v23"/>
    </vehicle>
    <vehicle id="431" depart="431.00">
        <route edges="h23 v22 v21"/>
    </vehicle>
    <vehicle id="432" depart="432.00">
        <route edges="-h11 -h12 -v22 h22 v12 v11"/>
    </vehicle>
    <vehicle id="433" depart="433.00">
        <route edges="-v11 -v12 -v13"/>
    </vehicle>
    <vehicle id="435" depart="435.00">
        <route edges="h13 h12 v11"/>
    </vehicle>
    <vehicle id="439" depart="439.00">
        <route edges="-h21 -h22 -v23"/>
    </vehicle>
    <vehicle id="440" depart="440.00">
        <route edges="-v11 -v12"/>
    </vehicle>
    <vehicle id="441" depart="441.00">
        <route edges="-h11 -h12 -v22 h22 v12 v11"/>
    </vehicle>
    <vehicle id="443" depart="443.00">
        <route edges="-h21 -h22 -v23"/>
    </vehicle>
    <vehicle id="445" depart="445.00">
        <route edges="h22 v12 -h12 -v22"/>
    </vehicle>
    <vehicle id="449" depart="449.00">
        <route edges="h13 h12"/>
    </vehicle>
    <vehicle id="453" depart="453.00">
        <route edges="h23 h22"/>
    </vehicle>
    <vehicle id="459" depart="459.00">
        <route edges="h22"/>
    </vehicle>
    <vehicle id="460" depart="460.00">
        <route edges="h22 v12"/>
    </vehicle>
    <vehicle id="464" depart="464.00">
        <route edges="h23 v22 -h13"/>
    </vehicle>
    <vehicle id="466" depart="466.00">
        <route edges="-h21 -h22"/>
    </vehicle>
    <vehicle id="470" depart="470.00">
        <route edges="v13 -h22 -v23"/>
    </vehicle>
    <vehicle id="471" depart="471.00">
        <route edges="v12 -h12 -v22 h22"/>
    </vehicle>
    <vehicle id="475" depart="475.00">
        <route edges="h23 v22"/>
    </vehicle>
    <vehicle id="479" depart="479.00">
        <route edges="-v22 h22 h21"/>
    </vehicle>
    <vehicle id="484" depart="484.00">
        <route edges="h13 v21"/>
    </vehicle>
    <vehicle id="491" depart="491.00">
        <route edges="-h21 -h22 -v23"/>
    </vehicle>
    <vehicle id="492" depart="492.00">
        <route edges="h22"/>
    </vehicle>
    <vehicle id="495" depart="495.00">
        <route edges="-v21 -v22 h22 v12 -h12 -h13"/>
    </vehicle>
    <vehicle id="496" depart="496.00">
        <route edges="-v22"/>
    </vehicle>
    <vehicle id="500" depart="500.00">
        <route edges="-h12 -v22 h22 h21"/>
    </vehicle>
    <vehicle id="504" depart="504.00">
        <route edges="v13 -h22 -v23"/>
    </vehicle>
    <vehicle id="505" depart="505.00">
        <route edges="h22 h21"/>
    </vehicle>
    <vehicle id="509" depart="509.00">
        <route edges="-h12 -v22 h22 v12 v11"/>
    </vehicle>
    <vehicle id="510" depart="510.00">
        <route edges="-h22 -h23"/>
    </vehicle>
    <vehicle id="513" depart="513.00">
        <route edges="-h11 -h12 -v22 h22 v12"/>
    </vehicle>
    <vehicle id="514" depart="514.00">
        <route edges="-h21 -h22"/>
    </vehicle>
    <vehicle id="516" depart="516.00">
        <route edges="h22 v12 -h12"/>
    </vehicle>
    <vehicle id="517" depart="517.00">
        <route edges="-h11 -h12 -v22 h22 v12 v11"/>
    </vehicle>
    <vehicle id="521" depart="521.00">
        <route edges="h23 h22 v12 -h12 -v22 -v23"/>
    </vehicle>
    <vehicle id="525" depart="525.00">
        <route edges="v12"/>
    </vehicle>
    <vehicle id="527" depart="527.00">
        <route edges="v23 v22 -h13"/>
    </vehicle>
    <vehicle id="528" depart="528.00">
        <route edges="-v22"/>
    </vehicle>
    <vehicle id="529" depart="529.00">
        <route edges="h23 h22 v12 -h12 -v22 -v23"/>
    </vehicle>
    <vehicle id="530" depart="530.00">
        <route edges="v22 -h13"/>
    </vehicle>
    <vehicle id="537" depart="537.00">
        <route edges="h23 h22 v12"/>
    </vehicle>
    <vehicle id="538" depart="538.00">
        <route edges="h22 v12 v11"/>
    </vehicle>
    <vehicle id="542" depart="542.00">
        <route edges="-v21 -v22 h22 v12 -h12 -h13"/>
    </vehicle>
    <vehicle id="543" depart="543.00">
        <route edges="-v21 -v22 h22 h21"/>
    </vehicle>
    <vehicle id="545" depart="545.00">
        <route edges="v22 -h13"/>
    </vehicle>
    <vehicle id="546" depart="546.00">
        <route edges="v13 v12 -h12 -h13"/>
    </vehicle>
    <vehicle id="547" depart="547.00">
        <route edges="-h12 -v22 h22"/>
    </vehicle>
    <vehicle id="549" depart="549.00">
        <route edges="h13 h12 h11"/>
    </vehicle>
    <vehicle id="551" depart="551.00">
        <route edges="-v12 h21"/>
    </vehicle>
    <vehicle id="552" depart="552.00">
        <route edges="v12"/>
    </vehicle>
    <vehicle id="553" depart="553.00">
        <route edges="h23 v22"/>
    </vehicle>
    <vehicle id="557" depart="557.00">
        <route edges="-h12 -v22 h22 v12"/>
    </vehicle>
    <vehicle id="559" depart="559.00">
        <route edges="h13 h12 v11"/>
    </vehicle>
    <vehicle id="562" depart="562.00">
        <route edges="h22 v12 -h12"/>
    </vehicle>
    <vehicle id="569" depart="569.00">
        <route edges="h22 v12 -h12"/>
    </vehicle>
    <vehicle id="574" depart="574.00">
        <route edges="-h12"/>
    </vehicle>
    <vehicle id="577" depart="577.00">
        <route edges="h22 v12 -h12 -v22 -v23"/>
    </vehicle>
    <vehicle id="579" depart="579.00">
        <route edges="v12 -h12 -h13"/>
    </vehicle>
    <vehicle id="581" depart="581.00">
        <route edges="h22 v12 -h12 -v22 -v23"/>
    </vehicle>
    <vehicle id="582" depart="582.00">
        <route edges="h22 v12 -h12"/>
    </vehicle>
    <vehicle id="583" depart="583.00">
        <route edges="-v21 h12"/>
    </vehicle>
    <vehicle id="584" depart="584.00">
        <route edges="-h11 -v12"/>
    </vehicle>
    <vehicle id="585" depart="585.00">
        <route edges="-h22"/>
    </vehicle>
    <vehicle id="586" depart="586.00">
        <route edges="-v11 -v12 -v13"/>
    </vehicle>
    <vehicle id="587" depart="587.00">
        <route edges="-h11 -h12 -v22 h22"/>
    </vehicle>
    <vehicle id="590" depart="590.00">
        <route edges="v13 v12 v11"/>
    </vehicle>
    <vehicle id="591" depart="591.00">
        <route edges="-h12 -v22 h22 v12"/>
    </vehicle>
    <vehicle id="592" depart="592.00">
        <route edges="-h11 -h12"/>
    </vehicle>
    <vehicle id="594" depart="594.00">
        <route edges="h13 h12"/>
    </vehicle>
    <vehicle id="595" depart="595.00">
        <route edges="h23 h22 v12 -h12 -v22"/>
    </vehicle>
    <vehicle id="596" depart="596.00">
        <route edges="-h12"/>
    </vehicle>
    <vehicle id="599" depart="599.00">
        <route edges="v22 -h13"/>
    </vehicle>
    <vehicle id="600" depart="600.00">
        <route edges="v13 -h22 -h23"/>
    </vehicle>
    <vehicle id="601" depart="601.00">
        <route edges="h13 h12 h11"/>
    </vehicle>
    <vehicle id="603" depart="603.00">
        <route edges="-v12 -v13"/>
    </vehicle>
    <vehicle id="607" depart="607.00">
        <route edges="h23 h22 v12"/>
    </vehicle>
    <vehicle id="608" depart="608.00">
        <route edges="v13 -h22 -h23"/>
    </vehicle>
    <vehicle id="609" depart="609.00">
        <route edges="-h21 -h22 -h23"/>
    </vehicle>
    <vehicle id="610" depart="610.00">
        <route edges="h13 h12 v11"/>
    </vehicle>
    <vehicle id="612" depart="612.00">
        <route edges="v12 -h12 -v22 -v23"/>
    </vehicle>
    <vehicle id="613" depart="613.00">
        <route edges="v12 v11"/>
    </vehicle>
    <vehicle id="618" depart="618.00">
        <route edges="-h12 -v22 -v23"/>
    </vehicle>
    <vehicle id="619" depart="619.00">
        <route edges="-v11 -v12"/>
    </vehicle>
    <vehicle id="622" depart="622.00">
        <route edges="-h11 -h12 -v22 h22 v12"/>
    </vehicle>
    <vehicle id="623" depart="623.00">
        <route edges="-h12 -v22 h22 v12"/>
    </vehicle>
    <vehicle id="626" depart="626.00">
        <route edges="h12 v11"/>
    </vehicle>
    <vehicle id="628" depart="628.00">
        <route edges="v12 -h12 -v22 h22 h21"/>
    </vehicle>
    <vehicle id="634" depart="634.00">
        <route edges="-h22 -v23"/>
    </vehicle>
    <vehicle id="635" depart="635.00">
        <route edges="-v21 h12 h11"/>
    </vehicle>
    <vehicle id="636" depart="636.00">
        <route edges="-h21 -v13"/>
    </vehicle>
    <vehicle id="639" depart="639.00">
        <route edges="v12 -h12 -v22 h22 h21"/>
    </vehicle>
    <vehicle id="640" depart="640.00">
        <route edges="-h12 -h13"/>
    </vehicle>
    <vehicle id="642" depart="642.00">
        <route edges="h23 h22 h21"/>
    </vehicle>
    <vehicle id="645" depart="645.00">
        <route edges="-h21 -v13"/>
    </vehicle>
    <vehicle id="647" depart="647.00">
        <route edges="-v21 h12"/>
    </vehicle>
    <vehicle id="649" depart="649.00">
        <route edges="-v21 h12 v11"/>
    </vehicle>
    <vehicle id="650" depart="650.00">
        <route edges="v13 v12 -h12 -v22 h22 h21"/>
    </vehicle>
    <vehicle id="651" depart="651.00">
        <route edges="v13 v12 -h12 -v22 h22"/>
    </vehicle>
    <vehicle id="653" depart="653.00">
        <route edges="h22 v12 -h12 -v22"/>
    </vehicle>
    <vehicle id="654" depart="654.00">
        <route edges="-v12 -v13"/>
    </vehicle>
    <vehicle id="655" depart="655.00">
        <route edges="-h21 -h22 -h23"/>
    </vehicle>
    <vehicle id="657" depart="657.00">
        <route edges="-h22"/>
    </vehicle>
    <vehicle id="658" depart="658.00">
        <route edges="-h12 -v22 h22 v12"/>
    </vehicle>
    <vehicle id="659" depart="659.00">
        <route edges="-h12 -v22 h22 v12 v11"/>
    </vehicle>
    <vehicle id="661" depart="661.00">
        <route edges="-h11 -v12 -v13"/>
    </vehicle>
    <vehicle id="664" depart="664.00">
        <route edges="v13 v12 v11"/>
    </vehicle>
    <vehicle id="666" depart="666.00">
        <route edges="-v21 -v22"/>
    </vehicle>
    <vehicle id="669" depart="669.00">
        <route edges="h23 h22 v12 -h12 -v22 -v23"/>
    </vehicle>
    <vehicle id="671" depart="671.00">
        <route edges="v12 -h12 -v22 -v23"/>
    </vehicle>
    <vehicle id="673" depart="673.00">
        <route edges="v23 v22"/>
    </vehicle>
    <vehicle id="675" depart="675.00">
        <route edges="-v21 h12 h11"/>
    </vehicle>
    <vehicle id="678" depart="678.00">
        <route edges="-v11 -v12 h21"/>
    </vehicle>
    <vehicle id="680" depart="680.00">
        <route edges="-h12 -v22 h22 v12"/>
    </vehicle>
    <vehicle id="685" depart="685.00">
        <route edges="-h22 -v23"/>
    </vehicle>
    <vehicle id="691" depart="691.00">
        <route edges="h22 v12 v11"/>
    </vehicle>
    <vehicle id="693" depart="693.00">
        <route edges="v13 v12 -h12 -v22 h22"/>
    </vehicle>
    <vehicle id="695" depart="695.00">
        <route edges="-v22 h22 v12 -h12"/>
    </vehicle>
    <vehicle id="701" depart="701.00">
        <route edges="-v21 h12 v11"/>
    </vehicle>
    <vehicle id="702" depart="702.00">
        <route edges="-v22 h22 v12 -h12 -h13"/>
    </vehicle>
    <vehicle id="705" depart="705.00">
        <route edges="-h22"/>
    </vehicle>
    <vehicle id="706" depart="706.00">
        <route edges="-v21 h12"/>
    </vehicle>
    <vehicle id="708" depart="708.00">
        <route edges="h22 v12 -h12 -h13"/>
    </vehicle>
    <vehicle id="709" depart="709.00">
        <route edges="v23 v22 -h13"/>
    </vehicle>
    <vehicle id="710" depart="710.00">
        <route edges="h12 h11"/>
    </vehicle>
    <vehicle id="712" depart="712.00">
        <route edges="-v21 -v22 -v23"/>
    </vehicle>
    <vehicle id="716" depart="716.00">
        <route edges="h23 h22 h21"/>
    </vehicle>
    <vehicle id="717" depart="717.00">
        <route edges="v12 -h12 -v22 h22"/>
    </vehicle>
    <vehicle id="719" depart="719.00">
        <route edges="h12 v11"/>
    </vehicle>
    <vehicle id="721" depart="721.00">
        <route edges="-v22 h22"/>
    </vehicle>
    <vehicle id="722" depart="722.00">
        <route edges="h22 v12 v11"/>
    </vehicle>
    <vehicle id="723" depart="723.00">
        <route edges="-h11 -h12 -v22 h22 v12 v11"/>
    </vehicle>
    <vehicle id="737" depart="737.00">
        <route edges="h12 v11"/>
    </vehicle>
    <vehicle id="738" depart="738.00">
        <route edges="h23 v22 -h13"/>
    </vehicle>
    <vehicle id="741" depart="741.00">
        <route edges="-h12 -v22 h22 h21"/>
    </vehicle>
    <vehicle id="743" depart="743.00">
        <route edges="-v21 -v22 h22 h21"/>
    </vehicle>
    <vehicle id="747" depart="747.00">
        <route edges="v23 v22"/>
    </vehicle>
    <vehicle id="748" depart="748.00">
        <route edges="-h12 -v22 h22 h21"/>
    </vehicle>
    <vehicle id="752" depart="752.00">
        <route edges="v12 -h12"/>
    </vehicle>
    <vehicle id="753" depart="753.00">
        <route edges="-h12 -v22 h22 v12 v11"/>
    </vehicle>
    <vehicle id="755" depart="755.00">
        <route edges="h13 h12"/>
    </vehicle>
    <vehicle id="758" depart="758.00">
        <route edges="h13 h12 h11"/>
    </vehicle>
    <vehicle id="759" depart="759.00">
        <route edges="-v21 -v22 h22 h21"/>
    </vehicle>
    <vehicle id="761" depart="761.00">