<?xml version="1.0" encoding="UTF-8"?>

<routes xmlns:xsi="http://www.w3.org/2001/XMLSchema-instance" xsi:noNamespaceSchemaLocation="http://sumo.dlr.de/xsd/routes_file.xsd">

<!--    <vTypeDistribution id="randVehicles">-->
<!--		<vType id="bike" length="2.2" width="0.9" height="1.5" minGap="1.0" sigma="0.6" accel="6.0" decel="10.0" maxSpeed="25.0" guiShape="motorcycle" probability="0.05"/>-->
<!--		<vType id="car" length="4.3" width="1.8" height="1.5" minGap="1.2" sigma="0.5" accel="2.9" decel="7.5" maxSpeed="27.78" guiShape="passenger" probability="0.7"/>-->
<!--		<vType id="van" length="7.1" width="2.4" height="2.4" minGap="1.5" sigma="0.5" accel="1.3" decel="4.0" maxSpeed="22.22" guiShape="truck" color="0.753,0.753,0.753" probability="0.15"/>-->
<!--		<vType id="bustruck" length="12.0" width="2.5" height="3.4" minGap="1.5" sigma="0.5" accel="1.2" decel="4.0" maxSpeed="19.44" guiShape="bus" color="0.678,1.0,0.184" probability="0.1"/>-->
<!--    </vTypeDistribution>-->


    <!-- Outgoing north routes   -->
    <route id="route_nsI" edges="4i 3o"/>
    <route id="route_nsO" edges="4i 3o"/>
    <route id="route_nwO" edges="4i 1o"/>

    <!-- Outgoing west routes   -->
    <route id="route_weI" edges="1i 2o"/>
    <route id="route_weO" edges="1i 2o"/>
    <route id="route_ws0" edges="1i 3o"/>

    <!-- Outgoing south routes   -->
    <route id="route_snI" edges="3i 4o"/>
    <route id="route_snO" edges="3i 4o"/>
    <route id="route_seO" edges="3i 2o"/>

    <!-- Outgoing east routes   -->
    <route id="route_ewI" edges="2i 1o"/>
    <route id="route_ewO" edges="2i 1o"/>
    <route id="route_en0" edges="2i 4o"/>

    <!-- Traffic flow for routes   -->
    <flow id="flow_nsI" route="route_nsI" begin="0" end="3600" vehsPerHour="250" departSpeed="speedLimit" departPos="base" departLane="best"/>
    <flow id="flow_ns0" route="route_nsO" begin="0" end="3600" vehsPerHour="250" departSpeed="speedLimit" departPos="base" departLane="best"/>
    <flow id="flow_nw0" route="route_nwO" begin="0" end="3600" vehsPerHour="250" departSpeed="speedLimit" departPos="base" departLane="best"/>

    <flow id="flow_weI" route="route_weI" begin="0" end="3600" vehsPerHour="250" departSpeed="speedLimit" departPos="base" departLane="best"/>
    <flow id="flow_we0" route="route_weO" begin="0" end="3600" vehsPerHour="250" departSpeed="speedLimit" departPos="base" departLane="best"/>
    <flow id="flow_ws0" route="route_ws0" begin="0" end="3600" vehsPerHour="250" departSpeed="speedLimit" departPos="base" departLane="best"/>

    <flow id="flow_snI" route="route_snI" begin="0" end="3600" vehsPerHour="250" departSpeed="speedLimit" departPos="base" departLane="best"/>
    <flow id="flow_sn0" route="route_snO" begin="0" end="3600" vehsPerHour="250" departSpeed="speedLimit" departPos="base" departLane="best"/>
    <flow id="flow_se0" route="route_seO" begin="0" end="3600" vehsPerHour="250" departSpeed="speedLimit" departPos="base" departLane="best"/>

    <flow id="flow_ewI" route="route_ewI" begin="0" end="3600" vehsPerHour="250" departSpeed="speedLimit" departPos="base" departLane="best"/>
    <flow id="flow_ew0" route="route_ewO" begin="0" end="3600" vehsPerHour="250" departSpeed="speedLimit" departPos="base" departLane="best"/>
    <flow id="flow_en0" route="route_en0" begin="0" end="3600" vehsPerHour="250" departSpeed="speedLimit" departPos="base" departLane="best"/>

    <!--  =================================================================================================================================================  -->

    <!--    RUSH HOUR NUMBER 1 -->
    <flow id="flow_nsI2" route="route_nsI" begin="3600" end="7200" vehsPerHour="600" departSpeed="speedLimit" departPos="base" departLane="best"/>
    <flow id="flow_ns02" route="route_nsO" begin="3600" end="7200" vehsPerHour="600" departSpeed="speedLimit" departPos="base" departLane="best"/>
    <flow id="flow_nw02" route="route_nwO" begin="3600" end="7200" vehsPerHour="600" departSpeed="speedLimit" departPos="base" departLane="best"/>

    <flow id="flow_weI2" route="route_weI" begin="3600" end="7200" vehsPerHour="600" departSpeed="speedLimit" departPos="base" departLane="best"/>
    <flow id="flow_we02" route="route_weO" begin="3600" end="7200" vehsPerHour="600" departSpeed="speedLimit" departPos="base" departLane="best"/>
    <flow id="flow_ws02" route="route_ws0" begin="3600" end="7200" vehsPerHour="600" departSpeed="speedLimit" departPos="base" departLane="best"/>

    <flow id="flow_snI2" route="route_snI" begin="3600" end="7200" vehsPerHour="600" departSpeed="speedLimit" departPos="base" departLane="best"/>
    <flow id="flow_sn02" route="route_snO" begin="3600" end="7200" vehsPerHour="600" departSpeed="speedLimit" departPos="base" departLane="best"/>
    <flow id="flow_se02" route="route_seO" begin="3600" end="7200" vehsPerHour="600" departSpeed="speedLimit" departPos="base" departLane="best"/>

    <flow id="flow_ewI2" route="route_ewI" begin="3600" end="7200" vehsPerHour="600" departSpeed="speedLimit" departPos="base" departLane="best"/>
    <flow id="flow_ew02" route="route_ewO" begin="3600" end="7200" vehsPerHour="600" departSpeed="speedLimit" departPos="base" departLane="best"/>
    <flow id="flow_en02" route="route_en0" begin="3600" end="7200" vehsPerHour="600" departSpeed="speedLimit" departPos="base" departLane="best"/>

    <!--  =================================================================================================================================================  -->


    <flow id="flow_nsI3" route="route_nsI" begin="7200" end="10800" vehsPerHour="250" departSpeed="speedLimit" departPos="base" departLane="best"/>
    <flow id="flow_ns03" route="route_nsO" begin="7200" end="10800" vehsPerHour="250" departSpeed="speedLimit" departPos="base" departLane="best"/>
    <flow id="flow_nw03" route="route_nwO" begin="7200" end="10800" vehsPerHour="250" departSpeed="speedLimit" departPos="base" departLane="best"/>

    <flow id="flow_weI3" route="route_weI" begin="7200" end="10800" vehsPerHour="250" departSpeed="speedLimit" departPos="base" departLane="best"/>
    <flow id="flow_we03" route="route_weO" begin="7200" end="10800" vehsPerHour="250" departSpeed="speedLimit" departPos="base" departLane="best"/>
    <flow id="flow_ws03" route="route_ws0" begin="7200" end="10800" vehsPerHour="250" departSpeed="speedLimit" departPos="base" departLane="best"/>

    <flow id="flow_snI3" route="route_snI" begin="7200" end="10800" vehsPerHour="250" departSpeed="speedLimit" departPos="base" departLane="best"/>
    <flow id="flow_sn03" route="route_snO" begin="7200" end="10800" vehsPerHour="250" departSpeed="speedLimit" departPos="base" departLane="best"/>
    <flow id="flow_se03" route="route_seO" begin="7200" end="10800" vehsPerHour="250" departSpeed="speedLimit" departPos="base" departLane="best"/>

    <flow id="flow_ewI3" route="route_ewI" begin="7200" end="10800" vehsPerHour="250" departSpeed="speedLimit" departPos="base" departLane="best"/>
    <flow id="flow_ew03" route="route_ewO" begin="7200" end="10800" vehsPerHour="250" departSpeed="speedLimit" departPos="base" departLane="best"/>
    <flow id="flow_en03" route="route_en0" begin="7200" end="10800" vehsPerHour="250" departSpeed="speedLimit" departPos="base" departLane="best"/>

    <!--  =================================================================================================================================================  -->

    <!--    RUSH HOUR NUMBER 2 -->
    <flow id="flow_nsI4" route="route_nsI" begin="10800" end="14400" vehsPerHour="600" departSpeed="speedLimit" departPos="base" departLane="best"/>
    <flow id="flow_ns04" route="route_nsO" begin="10800" end="14400" vehsPerHour="600" departSpeed="speedLimit" departPos="base" departLane="best"/>
    <flow id="flow_nw04" route="route_nwO" begin="10800" end="14400" vehsPerHour="600" departSpeed="speedLimit" departPos="base" departLane="best"/>

    <flow id="flow_weI4" route="route_weI" begin="10800" end="14400" vehsPerHour="600" departSpeed="speedLimit" departPos="base" departLane="best"/>
    <flow id="flow_we04" route="route_weO" begin="10800" end="14400" vehsPerHour="600" departSpeed="speedLimit" departPos="base" departLane="best"/>
    <flow id="flow_ws04" route="route_ws0" begin="10800" end="14400" vehsPerHour="600" departSpeed="speedLimit" departPos="base" departLane="best"/>

    <flow id="flow_snI4" route="route_snI" begin="10800" end="14400" vehsPerHour="600" departSpeed="speedLimit" departPos="base" departLane="best"/>
    <flow id="flow_sn04" route="route_snO" begin="10800" end="14400" vehsPerHour="600" departSpeed="speedLimit" departPos="base" departLane="best"/>
    <flow id="flow_se04" route="route_seO" begin="10800" end="14400" vehsPerHour="600" departSpeed="speedLimit" departPos="base" departLane="best"/>

    <flow id="flow_ewI4" route="route_ewI" begin="10800" end="14400" vehsPerHour="600" departSpeed="speedLimit" departPos="base" departLane="best"/>
    <flow id="flow_ew04" route="route_ewO" begin="10800" end="14400" vehsPerHour="600" departSpeed="speedLimit" departPos="base" departLane="best"/>
    <flow id="flow_en04" route="route_en0" begin="10800" end="14400" vehsPerHour="600" departSpeed="speedLimit" departPos="base" departLane="best"/>

    <!--  =================================================================================================================================================  -->

    <flow id="flow_nsI5" route="route_nsI" begin="14400" end="18000" vehsPerHour="250" departSpeed="speedLimit" departPos="base" departLane="best"/>
    <flow id="flow_ns05" route="route_nsO" begin="14400" end="18000" vehsPerHour="250" departSpeed="speedLimit" departPos="base" departLane="best"/>
    <flow id="flow_nw05" route="route_nwO" begin="14400" end="18000" vehsPerHour="250" departSpeed="speedLimit" departPos="base" departLane="best"/>

    <flow id="flow_weI5" route="route_weI" begin="14400" end="18000" vehsPerHour="250" departSpeed="speedLimit" departPos="base" departLane="best"/>
    <flow id="flow_we05" route="route_weO" begin="14400" end="18000" vehsPerHour="250" departSpeed="speedLimit" departPos="base" departLane="best"/>
    <flow id="flow_ws05" route="route_ws0" begin="14400" end="18000" vehsPerHour="250" departSpeed="speedLimit" departPos="base" departLane="best"/>

    <flow id="flow_snI5" route="route_snI" begin="14400" end="18000" vehsPerHour="250" departSpeed="speedLimit" departPos="base" departLane="best"/>
    <flow id="flow_sn05" route="route_snO" begin="14400" end="18000" vehsPerHour="250" departSpeed="speedLimit" departPos="base" departLane="best"/>
    <flow id="flow_se05" route="route_seO" begin="14400" end="18000" vehsPerHour="250" departSpeed="speedLimit" departPos="base" departLane="best"/>

    <flow id="flow_ewI5" route="route_ewI" begin="14400" end="18000" vehsPerHour="250" departSpeed="speedLimit" departPos="base" departLane="best"/>
    <flow id="flow_ew05" route="route_ewO" begin="14400" end="18000" vehsPerHour="250" departSpeed="speedLimit" departPos="base" departLane="best"/>
    <flow id="flow_en05" route="route_en0" begin="14400" end="18000" vehsPerHour="250" departSpeed="speedLimit" departPos="base" departLane="best"/>

<!--    Total Vehicles: 23400 -->
<!--    Hour One: 3600 -->
<!--    Hour Two: 7200 -->
<!--    Hour Three: 10800 -->
<!--    Hour Four: 14400 -->
<!--    Hour Five: 18000 -->
</routes>