<nodes >
 <node id="0" x="0.0" y="0.0" type="traffic_light"/>
 <node id="1" x="-250.0" y="0.0" type="priority"/>
 <node id="2" x="+250.0" y="0.0" type="priority"/>
 <node id="3" x="0.0" y="-250.0" type="priority"/>
 <node id="4" x="0.0" y="+250.0" type="priority"/>
 <node id="51" x="-210.0" y="0.0" type="priority"/>
 <node id="52" x="+210.0" y="0.0" type="priority"/>
 <node id="53" x="0.0" y="-210.0" type="priority"/>
 <node id="54" x="0.0" y="+210.0" type="priority"/> 
</nodes>