<?xml version="1.0" encoding="UTF-8"?>

<!-- generated on 2023-03-31 14:16:12 by Eclipse SUMO netedit Version 1.14.1
<configuration xmlns:xsi="http://www.w3.org/2001/XMLSchema-instance" xsi:noNamespaceSchemaLocation="http://sumo.dlr.de/xsd/netconvertConfiguration.xsd">

    <input>
        <sumo-net-file value="C:\Users\gavin\OneDrive\Desktop\SUMO_Projects\Project\SUMO_TwoLane\cross.net.xml"/>
    </input>

    <output>
        <output-file value="C:\Users\gavin\OneDrive\Desktop\SUMO_Projects\Project\SUMO_TwoLane\cross.net.xml"/>
    </output>

    <processing>
        <geometry.min-radius.fix.railways value="false"/>
        <geometry.max-grade.fix value="false"/>
        <offset.disable-normalization value="true"/>
        <lefthand value="false"/>
    </processing>

    <junctions>
        <no-turnarounds value="true"/>
        <junctions.corner-detail value="5"/>
        <junctions.limit-turn-speed value="5.5"/>
        <rectangular-lane-cut value="false"/>
    </junctions>

    <pedestrian>
        <walkingareas value="false"/>
    </pedestrian>

</configuration>
-->

<net version="1.9" junctionCornerDetail="5" limitTurnSpeed="5.50" xmlns:xsi="http://www.w3.org/2001/XMLSchema-instance" xsi:noNamespaceSchemaLocation="http://sumo.dlr.de/xsd/net_file.xsd">

    <location netOffset="250.00,250.00" convBoundary="0.00,0.00,500.00,500.00" origBoundary="-250.00,-250.00,250.00,250.00" projParameter="!"/>

    <edge id=":0_0" function="internal">
        <lane id=":0_0_0" index="0" speed="6.51" length="9.03" shape="245.20,260.40 244.85,257.95 243.80,256.20 242.05,255.15 239.60,254.80"/>
    </edge>
    <edge id=":0_1" function="internal">
        <lane id=":0_1_0" index="0" speed="15.28" length="20.80" shape="245.20,260.40 245.20,239.60"/>
        <lane id=":0_1_1" index="1" speed="15.28" length="20.80" shape="248.40,260.40 248.40,239.60"/>
    </edge>
    <edge id=":0_3" function="internal">
        <lane id=":0_3_0" index="0" speed="6.51" length="9.03" shape="260.40,254.80 257.95,255.15 256.20,256.20 255.15,257.95 254.80,260.40"/>
    </edge>
    <edge id=":0_4" function="internal">
        <lane id=":0_4_0" index="0" speed="15.28" length="20.80" shape="260.40,254.80 239.60,254.80"/>
        <lane id=":0_4_1" index="1" speed="15.28" length="20.80" shape="260.40,251.60 239.60,251.60"/>
    </edge>
    <edge id=":0_6" function="internal">
        <lane id=":0_6_0" index="0" speed="6.51" length="9.03" shape="254.80,239.60 255.15,242.05 256.20,243.80 257.95,244.85 260.40,245.20"/>
    </edge>
    <edge id=":0_7" function="internal">
        <lane id=":0_7_0" index="0" speed="15.28" length="20.80" shape="254.80,239.60 254.80,260.40"/>
        <lane id=":0_7_1" index="1" speed="15.28" length="20.80" shape="251.60,239.60 251.60,260.40"/>
    </edge>
    <edge id=":0_9" function="internal">
        <lane id=":0_9_0" index="0" speed="6.51" length="9.03" shape="239.60,245.20 242.05,244.85 243.80,243.80 244.85,242.05 245.20,239.60"/>
    </edge>
    <edge id=":0_10" function="internal">
        <lane id=":0_10_0" index="0" speed="15.28" length="20.80" shape="239.60,245.20 260.40,245.20"/>
        <lane id=":0_10_1" index="1" speed="15.28" length="20.80" shape="239.60,248.40 260.40,248.40"/>
    </edge>
    <edge id=":1_0" function="internal">
        <lane id=":1_0_0" index="0" speed="4.77" length="9.60" shape="0.00,254.80 0.00,245.20"/>
        <lane id=":1_0_1" index="1" speed="3.24" length="3.20" shape="0.00,251.60 0.00,248.40"/>
    </edge>
    <edge id=":1_2" function="internal">
        <lane id=":1_2_0" index="0" speed="4.77" length="9.60" shape="0.00,254.80 0.00,245.20"/>
        <lane id=":1_2_1" index="1" speed="3.24" length="3.20" shape="0.00,251.60 0.00,248.40"/>
    </edge>
    <edge id=":2_0" function="internal">
        <lane id=":2_0_0" index="0" speed="4.77" length="9.60" shape="500.00,245.20 500.00,254.80"/>
        <lane id=":2_0_1" index="1" speed="3.24" length="3.20" shape="500.00,248.40 500.00,251.60"/>
    </edge>
    <edge id=":2_2" function="internal">
        <lane id=":2_2_0" index="0" speed="4.77" length="9.60" shape="500.00,245.20 500.00,254.80"/>
        <lane id=":2_2_1" index="1" speed="3.24" length="3.20" shape="500.00,248.40 500.00,251.60"/>
    </edge>
    <edge id=":3_0" function="internal">
        <lane id=":3_0_0" index="0" speed="4.77" length="9.60" shape="245.20,0.00 254.80,0.00"/>
        <lane id=":3_0_1" index="1" speed="3.24" length="3.20" shape="248.40,0.00 251.60,0.00"/>
    </edge>
    <edge id=":3_2" function="internal">
        <lane id=":3_2_0" index="0" speed="4.77" length="9.60" shape="245.20,0.00 254.80,0.00"/>
        <lane id=":3_2_1" index="1" speed="3.24" length="3.20" shape="248.40,0.00 251.60,0.00"/>
    </edge>
    <edge id=":4_0" function="internal">
        <lane id=":4_0_0" index="0" speed="4.77" length="9.60" shape="254.80,500.00 245.20,500.00"/>
        <lane id=":4_0_1" index="1" speed="3.24" length="3.20" shape="251.60,500.00 248.40,500.00"/>
    </edge>
    <edge id=":4_2" function="internal">
        <lane id=":4_2_0" index="0" speed="4.77" length="9.60" shape="254.80,500.00 245.20,500.00"/>
        <lane id=":4_2_1" index="1" speed="3.24" length="3.20" shape="251.60,500.00 248.40,500.00"/>
    </edge>
    <edge id=":51_0" function="internal">
        <lane id=":51_0_0" index="0" speed="3.65" length="4.67" shape="40.00,248.40 41.20,249.20 41.60,250.00 41.20,250.80 40.00,251.60"/>
    </edge>
    <edge id=":52_0" function="internal">
        <lane id=":52_0_0" index="0" speed="3.65" length="4.67" shape="460.00,251.60 458.80,250.80 458.40,250.00 458.80,249.20 460.00,248.40"/>
    </edge>
    <edge id=":53_0" function="internal">
        <lane id=":53_0_0" index="0" speed="3.65" length="4.67" shape="251.60,40.00 250.80,41.20 250.00,41.60 249.20,41.20 248.40,40.00"/>
    </edge>
    <edge id=":54_0" function="internal">
        <lane id=":54_0_0" index="0" speed="3.65" length="4.67" shape="248.40,460.00 249.20,458.80 250.00,458.40 250.80,458.80 251.60,460.00"/>
    </edge>

    <edge id="1i" from="1" to="0" priority="78">
        <lane id="1i_0" index="0" speed="19.44" length="239.60" shape="0.00,245.20 239.60,245.20"/>
        <lane id="1i_1" index="1" speed="19.44" length="239.60" shape="0.00,248.40 239.60,248.40"/>
    </edge>
    <edge id="1o" from="0" to="1" priority="46">
        <lane id="1o_0" index="0" speed="11.11" length="239.60" shape="239.60,254.80 0.00,254.80"/>
        <lane id="1o_1" index="1" speed="11.11" length="239.60" shape="239.60,251.60 0.00,251.60"/>
    </edge>
    <edge id="2i" from="2" to="0" priority="78">
        <lane id="2i_0" index="0" speed="19.44" length="239.60" shape="500.00,254.80 260.40,254.80"/>
        <lane id="2i_1" index="1" speed="19.44" length="239.60" shape="500.00,251.60 260.40,251.60"/>
    </edge>
    <edge id="2o" from="0" to="2" priority="46">
        <lane id="2o_0" index="0" speed="11.11" length="239.60" shape="260.40,245.20 500.00,245.20"/>
        <lane id="2o_1" index="1" speed="11.11" length="239.60" shape="260.40,248.40 500.00,248.40"/>
    </edge>
    <edge id="3i" from="3" to="0" priority="78">
        <lane id="3i_0" index="0" speed="19.44" length="239.60" shape="254.80,0.00 254.80,239.60"/>
        <lane id="3i_1" index="1" speed="19.44" length="239.60" shape="251.60,0.00 251.60,239.60"/>
    </edge>
    <edge id="3o" from="0" to="3" priority="46">
        <lane id="3o_0" index="0" speed="11.11" length="239.60" shape="245.20,239.60 245.20,0.00"/>
        <lane id="3o_1" index="1" speed="11.11" length="239.60" shape="248.40,239.60 248.40,0.00"/>
    </edge>
    <edge id="4i" from="4" to="0" priority="78">
        <lane id="4i_0" index="0" speed="19.44" length="239.60" shape="245.20,500.00 245.20,260.40"/>
        <lane id="4i_1" index="1" speed="19.44" length="239.60" shape="248.40,500.00 248.40,260.40"/>
    </edge>
    <edge id="4o" from="0" to="4" priority="46">
        <lane id="4o_0" index="0" speed="11.11" length="239.60" shape="254.80,260.40 254.80,500.00"/>
        <lane id="4o_1" index="1" speed="11.11" length="239.60" shape="251.60,260.40 251.60,500.00"/>
    </edge>
    <edge id="51i" from="1" to="51" priority="78">
        <lane id="51i_0" index="0" speed="19.44" length="40.00" shape="0.00,245.20 40.00,245.20"/>
        <lane id="51i_1" index="1" speed="19.44" length="40.00" shape="0.00,248.40 40.00,248.40"/>
    </edge>
    <edge id="51o" from="51" to="1" priority="46">
        <lane id="51o_0" index="0" speed="11.11" length="40.00" shape="40.00,254.80 0.00,254.80"/>
        <lane id="51o_1" index="1" speed="11.11" length="40.00" shape="40.00,251.60 0.00,251.60"/>
    </edge>
    <edge id="52i" from="2" to="52" priority="78">
        <lane id="52i_0" index="0" speed="19.44" length="40.00" shape="500.00,254.80 460.00,254.80"/>
        <lane id="52i_1" index="1" speed="19.44" length="40.00" shape="500.00,251.60 460.00,251.60"/>
    </edge>
    <edge id="52o" from="52" to="2" priority="46">
        <lane id="52o_0" index="0" speed="11.11" length="40.00" shape="460.00,245.20 500.00,245.20"/>
        <lane id="52o_1" index="1" speed="11.11" length="40.00" shape="460.00,248.40 500.00,248.40"/>
    </edge>
    <edge id="53i" from="3" to="53" priority="78">
        <lane id="53i_0" index="0" speed="19.44" length="40.00" shape="254.80,0.00 254.80,40.00"/>
        <lane id="53i_1" index="1" speed="19.44" length="40.00" shape="251.60,0.00 251.60,40.00"/>
    </edge>
    <edge id="53o" from="53" to="3" priority="46">
        <lane id="53o_0" index="0" speed="11.11" length="40.00" shape="245.20,40.00 245.20,0.00"/>
        <lane id="53o_1" index="1" speed="11.11" length="40.00" shape="248.40,40.00 248.40,0.00"/>
    </edge>
    <edge id="54i" from="4" to="54" priority="78">
        <lane id="54i_0" index="0" speed="19.44" length="40.00" shape="245.20,500.00 245.20,460.00"/>
        <lane id="54i_1" index="1" speed="19.44" length="40.00" shape="248.40,500.00 248.40,460.00"/>
    </edge>
    <edge id="54o" from="54" to="4" priority="46">
        <lane id="54o_0" index="0" speed="11.11" length="40.00" shape="254.80,460.00 254.80,500.00"/>
        <lane id="54o_1" index="1" speed="11.11" length="40.00" shape="251.60,460.00 251.60,500.00"/>
    </edge>

    <tlLogic id="0" type="static" programID="0" offset="0">
        <phase duration="40" state="GGGggrrrrrGGGggrrrrr"/>
        <phase duration="5"  state="yyyyyrrrrryyyyyrrrrr"/>
        <phase duration="40" state="rrrrrGGGggrrrrrGGGgg"/>
        <phase duration="5"  state="rrrrryyyyyrrrrryyyyy"/>
    </tlLogic>

    <junction id="0" type="traffic_light" x="250.00" y="250.00" incLanes="4i_0 4i_1 2i_0 2i_1 3i_0 3i_1 1i_0 1i_1" intLanes=":0_0_0 :0_1_0 :0_1_1 :0_3_0 :0_4_0 :0_4_1 :0_6_0 :0_7_0 :0_7_1 :0_9_0 :0_10_0 :0_10_1" shape="243.60,260.40 256.40,260.40 256.84,258.18 257.40,257.40 258.18,256.84 259.18,256.51 260.40,256.40 260.40,243.60 258.18,243.16 257.40,242.60 256.84,241.82 256.51,240.82 256.40,239.60 243.60,239.60 243.16,241.82 242.60,242.60 241.82,243.16 240.82,243.49 239.60,243.60 239.60,256.40 241.82,256.84 242.60,257.40 243.16,258.18 243.49,259.18">
        <request index="0"  response="000000000000" foes="000000110000" cont="0"/>
        <request index="1"  response="000000000000" foes="111000110000" cont="0"/>
        <request index="2"  response="000000000000" foes="111000110000" cont="0"/>
        <request index="3"  response="000110000000" foes="000110000000" cont="0"/>
        <request index="4"  response="000110000111" foes="000110000111" cont="0"/>
        <request index="5"  response="000110000111" foes="000110000111" cont="0"/>
        <request index="6"  response="000000000000" foes="110000000000" cont="0"/>
        <request index="7"  response="000000000000" foes="110000111000" cont="0"/>
        <request index="8"  response="000000000000" foes="110000111000" cont="0"/>
        <request index="9"  response="000000000110" foes="000000000110" cont="0"/>
        <request index="10" response="000111000110" foes="000111000110" cont="0"/>
        <request index="11" response="000111000110" foes="000111000110" cont="0"/>
    </junction>
    <junction id="1" type="priority" x="0.00" y="250.00" incLanes="1o_0 1o_1 51o_0 51o_1" intLanes=":1_0_0 :1_0_1 :1_2_0 :1_2_1" shape="0.00,250.00 0.00,256.40 0.00,250.00 0.00,256.40">
        <request index="0" response="0000" foes="0000" cont="0"/>
        <request index="1" response="0000" foes="0000" cont="0"/>
        <request index="2" response="0000" foes="0000" cont="0"/>
        <request index="3" response="0000" foes="0000" cont="0"/>
    </junction>
    <junction id="2" type="priority" x="500.00" y="250.00" incLanes="2o_0 2o_1 52o_0 52o_1" intLanes=":2_0_0 :2_0_1 :2_2_0 :2_2_1" shape="500.00,250.00 500.00,243.60 500.00,250.00 500.00,243.60">
        <request index="0" response="0000" foes="0000" cont="0"/>
        <request index="1" response="0000" foes="0000" cont="0"/>
        <request index="2" response="0000" foes="0000" cont="0"/>
        <request index="3" response="0000" foes="0000" cont="0"/>
    </junction>
    <junction id="3" type="priority" x="250.00" y="0.00" incLanes="3o_0 3o_1 53o_0 53o_1" intLanes=":3_0_0 :3_0_1 :3_2_0 :3_2_1" shape="250.00,0.00 243.60,0.00 250.00,0.00 243.60,0.00">
        <request index="0" response="0000" foes="0000" cont="0"/>
        <request index="1" response="0000" foes="0000" cont="0"/>
        <request index="2" response="0000" foes="0000" cont="0"/>
        <request index="3" response="0000" foes="0000" cont="0"/>
    </junction>
    <junction id="4" type="priority" x="250.00" y="500.00" incLanes="4o_0 4o_1 54o_0 54o_1" intLanes=":4_0_0 :4_0_1 :4_2_0 :4_2_1" shape="250.00,500.00 256.40,500.00 250.00,500.00 256.40,500.00">
        <request index="0" response="0000" foes="0000" cont="0"/>
        <request index="1" response="0000" foes="0000" cont="0"/>
        <request index="2" response="0000" foes="0000" cont="0"/>
        <request index="3" response="0000" foes="0000" cont="0"/>
    </junction>
    <junction id="51" type="priority" x="40.00" y="250.00" incLanes="51i_0 51i_1" intLanes=":51_0_0" shape="40.00,250.00 40.00,243.60 40.00,250.00">
        <request index="0" response="0" foes="0" cont="0"/>
    </junction>
    <junction id="52" type="priority" x="460.00" y="250.00" incLanes="52i_0 52i_1" intLanes=":52_0_0" shape="460.00,250.00 460.00,256.40 460.00,250.00">
        <request index="0" response="0" foes="0" cont="0"/>
    </junction>
    <junction id="53" type="priority" x="250.00" y="40.00" incLanes="53i_0 53i_1" intLanes=":53_0_0" shape="250.00,40.00 256.40,40.00 250.00,40.00">
        <request index="0" response="0" foes="0" cont="0"/>
    </junction>
    <junction id="54" type="priority" x="250.00" y="460.00" incLanes="54i_0 54i_1" intLanes=":54_0_0" shape="250.00,460.00 243.60,460.00 250.00,460.00">
        <request index="0" response="0" foes="0" cont="0"/>
    </junction>

    <connection from="1i" to="3o" fromLane="0" toLane="0" via=":0_9_0" tl="0" linkIndex="15" dir="r" state="o"/>
    <connection from="1i" to="2o" fromLane="0" toLane="0" via=":0_10_0" tl="0" linkIndex="16" dir="s" state="o"/>
    <connection from="1i" to="2o" fromLane="1" toLane="1" via=":0_10_1" tl="0" linkIndex="17" dir="s" state="o"/>
    <connection from="1o" to="51i" fromLane="0" toLane="0" via=":1_0_0" dir="l" state="M"/>
    <connection from="1o" to="51i" fromLane="1" toLane="1" via=":1_0_1" dir="l" state="M"/>
    <connection from="2i" to="4o" fromLane="0" toLane="0" via=":0_3_0" tl="0" linkIndex="5" dir="r" state="o"/>
    <connection from="2i" to="1o" fromLane="0" toLane="0" via=":0_4_0" tl="0" linkIndex="6" dir="s" state="o"/>
    <connection from="2i" to="1o" fromLane="1" toLane="1" via=":0_4_1" tl="0" linkIndex="7" dir="s" state="o"/>
    <connection from="2o" to="52i" fromLane="0" toLane="0" via=":2_0_0" dir="l" state="M"/>
    <connection from="2o" to="52i" fromLane="1" toLane="1" via=":2_0_1" dir="l" state="M"/>
    <connection from="3i" to="2o" fromLane="0" toLane="0" via=":0_6_0" tl="0" linkIndex="10" dir="r" state="O"/>
    <connection from="3i" to="4o" fromLane="0" toLane="0" via=":0_7_0" tl="0" linkIndex="11" dir="s" state="O"/>
    <connection from="3i" to="4o" fromLane="1" toLane="1" via=":0_7_1" tl="0" linkIndex="12" dir="s" state="O"/>
    <connection from="3o" to="53i" fromLane="0" toLane="0" via=":3_0_0" dir="l" state="M"/>
    <connection from="3o" to="53i" fromLane="1" toLane="1" via=":3_0_1" dir="l" state="M"/>
    <connection from="4i" to="1o" fromLane="0" toLane="0" via=":0_0_0" tl="0" linkIndex="0" dir="r" state="O"/>
    <connection from="4i" to="3o" fromLane="0" toLane="0" via=":0_1_0" tl="0" linkIndex="1" dir="s" state="O"/>
    <connection from="4i" to="3o" fromLane="1" toLane="1" via=":0_1_1" tl="0" linkIndex="2" dir="s" state="O"/>
    <connection from="4o" to="54i" fromLane="0" toLane="0" via=":4_0_0" dir="l" state="M"/>
    <connection from="4o" to="54i" fromLane="1" toLane="1" via=":4_0_1" dir="l" state="M"/>
    <connection from="51i" to="51o" fromLane="1" toLane="1" via=":51_0_0" dir="t" state="M"/>
    <connection from="51o" to="1i" fromLane="0" toLane="0" via=":1_2_0" dir="l" state="M"/>
    <connection from="51o" to="1i" fromLane="1" toLane="1" via=":1_2_1" dir="l" state="M"/>
    <connection from="52i" to="52o" fromLane="1" toLane="1" via=":52_0_0" dir="t" state="M"/>
    <connection from="52o" to="2i" fromLane="0" toLane="0" via=":2_2_0" dir="l" state="M"/>
    <connection from="52o" to="2i" fromLane="1" toLane="1" via=":2_2_1" dir="l" state="M"/>
    <connection from="53i" to="53o" fromLane="1" toLane="1" via=":53_0_0" dir="t" state="M"/>
    <connection from="53o" to="3i" fromLane="0" toLane="0" via=":3_2_0" dir="l" state="M"/>
    <connection from="53o" to="3i" fromLane="1" toLane="1" via=":3_2_1" dir="l" state="M"/>
    <connection from="54i" to="54o" fromLane="1" toLane="1" via=":54_0_0" dir="t" state="M"/>
    <connection from="54o" to="4i" fromLane="0" toLane="0" via=":4_2_0" dir="l" state="M"/>
    <connection from="54o" to="4i" fromLane="1" toLane="1" via=":4_2_1" dir="l" state="M"/>

    <connection from=":0_0" to="1o" fromLane="0" toLane="0" dir="r" state="M"/>
    <connection from=":0_1" to="3o" fromLane="0" toLane="0" dir="s" state="M"/>
    <connection from=":0_1" to="3o" fromLane="1" toLane="1" dir="s" state="M"/>
    <connection from=":0_3" to="4o" fromLane="0" toLane="0" dir="r" state="M"/>
    <connection from=":0_4" to="1o" fromLane="0" toLane="0" dir="s" state="M"/>
    <connection from=":0_4" to="1o" fromLane="1" toLane="1" dir="s" state="M"/>
    <connection from=":0_6" to="2o" fromLane="0" toLane="0" dir="r" state="M"/>
    <connection from=":0_7" to="4o" fromLane="0" toLane="0" dir="s" state="M"/>
    <connection from=":0_7" to="4o" fromLane="1" toLane="1" dir="s" state="M"/>
    <connection from=":0_9" to="3o" fromLane="0" toLane="0" dir="r" state="M"/>
    <connection from=":0_10" to="2o" fromLane="0" toLane="0" dir="s" state="M"/>
    <connection from=":0_10" to="2o" fromLane="1" toLane="1" dir="s" state="M"/>
    <connection from=":1_0" to="51i" fromLane="0" toLane="0" dir="l" state="M"/>
    <connection from=":1_0" to="51i" fromLane="1" toLane="1" dir="l" state="M"/>
    <connection from=":1_2" to="1i" fromLane="0" toLane="0" dir="l" state="M"/>
    <connection from=":1_2" to="1i" fromLane="1" toLane="1" dir="l" state="M"/>
    <connection from=":2_0" to="52i" fromLane="0" toLane="0" dir="l" state="M"/>
    <connection from=":2_0" to="52i" fromLane="1" toLane="1" dir="l" state="M"/>
    <connection from=":2_2" to="2i" fromLane="0" toLane="0" dir="l" state="M"/>
    <connection from=":2_2" to="2i" fromLane="1" toLane="1" dir="l" state="M"/>
    <connection from=":3_0" to="53i" fromLane="0" toLane="0" dir="l" state="M"/>
    <connection from=":3_0" to="53i" fromLane="1" toLane="1" dir="l" state="M"/>
    <connection from=":3_2" to="3i" fromLane="0" toLane="0" dir="l" state="M"/>
    <connection from=":3_2" to="3i" fromLane="1" toLane="1" dir="l" state="M"/>
    <connection from=":4_0" to="54i" fromLane="0" toLane="0" dir="l" state="M"/>
    <connection from=":4_0" to="54i" fromLane="1" toLane="1" dir="l" state="M"/>
    <connection from=":4_2" to="4i" fromLane="0" toLane="0" dir="l" state="M"/>
    <connection from=":4_2" to="4i" fromLane="1" toLane="1" dir="l" state="M"/>
    <connection from=":51_0" to="51o" fromLane="0" toLane="1" dir="t" state="M"/>
    <connection from=":52_0" to="52o" fromLane="0" toLane="1" dir="t" state="M"/>
    <connection from=":53_0" to="53o" fromLane="0" toLane="1" dir="t" state="M"/>
    <connection from=":54_0" to="54o" fromLane="0" toLane="1" dir="t" state="M"/>

</net>
